186

Al      13.55       8.16      14.71
Al      12.06       5.39      15.15
Al      10.43       7.89      15.23
Al       1.46       0.97       0.63
Al       4.63       0.96       0.17
Al       3.24       3.60       0.17
H      12.03      13.46      24.41
H      11.06      10.43      21.34
H      16.33       5.10      27.89
H      15.25       5.05      25.63
H      18.39       7.61      24.15
H      16.39       7.95      20.46
H      11.43      11.92       9.00
H      13.30       6.86       8.54
H      15.53      10.99      24.95
H       4.97       3.33      26.16
H       5.62       3.28      27.77
H      13.42       3.78      17.65
H      13.62       3.02      19.23
H      15.49       8.28      16.99
H      16.21       8.99      18.43
H       7.69       0.72       3.96
H       6.68       0.97       2.58
H       8.28       2.21       6.80
H       7.33       1.07       6.06
H      11.01       3.16       9.35
H       9.74       3.19       8.27
H      11.03       3.59      12.77
H      10.81       2.59      11.35
H       8.11       7.62      13.06
H       7.05       7.93      11.69
H       5.44       6.89       5.24
H       6.67       6.60       6.35
H       5.01       5.69       2.05
H       5.74       6.81       3.14
H       9.66       6.82       8.34
H      10.03       7.50       9.86
H       7.04       5.07      23.73
H       7.96       5.09      25.15
H       4.79       1.09       5.40
H       4.97       1.84       6.91
H       7.45       3.98      21.87
H       7.91       4.69      20.41
H      15.26      11.53      17.52
H      14.29      10.60      16.40
H      15.53       9.14      13.82
H       6.12      10.70       0.51
C      14.19       6.05      16.81
C       9.02       5.39      23.44
C       8.98       5.32      22.02
C      10.06       5.83      21.26
C      10.18       5.89      24.07
C      10.23       5.90      25.48
C      10.01       5.75      19.86
C      10.20       5.87      26.70
C      12.22      10.22      18.11
C      11.35      10.12      19.23
C      11.73      10.56      20.49
C      10.19       5.87      17.23
C      13.00      11.12      20.70
C      13.86      11.28      19.60
C      13.50      10.86      18.29
C      14.82      11.73      25.33
C      14.93      12.18      26.64
C      12.94      13.56      26.37
C      12.85      13.10      25.04
C      13.78      12.21      24.52
C      13.62      11.79      23.17
C      13.38      11.51      22.01
C      11.92       9.59      16.81
C      14.02      13.11      27.20
C      14.76       5.97      18.15
C      15.49       7.10      18.69
C      15.88       7.09      20.04
C      15.61       5.99      20.86
C      14.96       4.86      20.34
C      14.52       4.83      19.00
C      16.16       5.62      25.80
C      16.75       5.66      27.05
C      18.49       7.12      26.24
C      13.74       5.74      12.96
C      17.92       7.06      24.96
C      16.77       6.29      24.72
C      16.30       6.17      23.39
C      15.98       6.05      22.22
C      17.94       6.38      27.30
C       9.24       5.43      12.13
C       8.20       6.26      11.55
C       7.75       5.95      10.25
C       8.33       4.93       9.47
C       9.37       4.15      10.01
C       9.76       5.72      13.46
C       9.78       4.34      11.35
C       7.32       2.87       5.16
C       6.79       2.53       3.90
C       5.97       4.86       3.65
C       6.49       5.17       4.92
C       7.15       4.17       5.67
C       7.58       4.46       6.98
C       7.91       4.70       8.14
C       6.09       3.52       3.12
C      11.02       9.61      11.63
C      11.34       9.26      12.99
C      10.38       8.72       8.27
C      10.21       8.90       6.89
C      10.98      11.22       7.01
C      11.09      11.08       8.39
C      10.79       9.86       9.02
C      10.50      10.12       6.24
C      10.29      10.29       4.86
C      10.92       9.74      10.42
C      10.13      10.54       3.68
C      13.94       5.34      11.60
C       9.96       5.68      18.64
C      14.14       3.53       8.52
C      14.10       3.31       7.14
C      13.52       5.65       6.77
C      13.54       5.87       8.14
C      13.87       4.83       9.03
C      13.81       4.37       6.24
C      13.85       4.14       4.85
C      13.91       5.08      10.41
C      13.94       3.88       3.67
C      14.18      13.72      28.54
C      11.19       6.39      21.91
C       9.92       5.75      28.11
C      18.61       6.14      28.61
C       9.88      11.01       2.34
C       5.50       3.17       1.84
C      14.24       3.42       2.34
C      11.26       6.39      23.30
N       5.74       3.09      26.78
N      13.88       3.72      18.55
N      15.81       8.19      17.95
N       6.90       1.21       3.54
N       7.98       1.86       5.89
N       9.99       3.14       9.26
N      10.76       3.50      11.79
N       7.64       7.30      12.22
N       6.36       6.48       5.39
N       5.33       5.89       2.99
N      10.22       7.49       8.86
N       7.95       4.90      24.15
N       5.08       0.98       6.38
N       7.84       4.80      21.42
N      14.37      11.09      17.28
Cl      12.44       7.07      20.95
Cl      14.62       3.51      21.36
Cl      19.93       8.08      26.37
Cl      12.64       7.03      24.11
Cl       6.51       6.94       9.55
Cl       9.60       7.59       5.95
Cl      14.54       2.27       9.60
Cl       1.69       1.75       6.50
Cl      13.17       6.95       5.70
Cl      16.19      11.48      27.60
Cl      15.42      12.00      19.85
Cl       9.79       9.39      19.16
O      12.91       9.39      16.03
O      10.64       4.92      13.99
O       9.39       6.78      14.09
O      10.36       9.10      13.82
O      12.00       7.13      15.02
O      18.32       5.06      29.20
O      13.13      14.05      29.18
O      15.37      13.95      28.97
O      10.34       4.70      28.70
O       9.21       6.67      28.64
O      19.48       6.99      29.03
O      14.41       7.09      16.09
O      13.81       2.28       2.01
O       8.70      11.32       2.03
O      10.92      11.15       1.58
O       5.71       2.00       1.33
O       4.73       4.02       1.22
O      14.97       4.20       1.62
O       3.11       1.85       0.32
O      13.44       5.08      16.36
O      10.94       5.01      16.64
O       9.71       6.92      16.70
O      10.72       9.22      16.50
O      12.56       9.07      13.26
O      14.08       6.92      13.28
O      13.15       4.88      13.73
O      14.98       9.21      14.61
O      12.66       0.18       0.88
