268

Zn       0.68       3.85       9.72
Zn       8.39      11.53      12.56
Zn      16.05      19.20      12.56
Zn       8.34      11.52       9.72
H       8.97       8.15       9.14
H       0.74       9.77      11.30
H      11.91      10.90      11.47
H       9.06       7.91      13.51
H      14.30      11.54      11.44
H      12.53      19.73      13.21
H      10.79      19.62      14.98
H       9.06       6.04      15.14
H      12.53       4.69       8.84
H       2.74       5.20       8.15
H      15.41       7.38      11.18
H      10.75       4.79       7.12
H       3.64       5.14       5.81
H       8.96       6.52       7.28
H      15.57       2.67       4.75
H      14.85       2.80       7.15
H       3.05       1.19       2.37
H       5.18       5.11       3.08
H       7.32       6.24       2.47
H       8.09       6.27       0.10
H       3.44      14.40       1.18
H       0.93       5.14       1.67
H      15.42      15.83      13.14
H       8.33      17.45      10.98
H      12.49      18.58      10.81
H      15.33      15.60       8.77
H      10.09       3.85      10.84
H      11.86      12.05       9.07
H      13.60      11.93       7.30
H      15.33      13.72       7.14
H      11.86      12.37      13.44
H       6.33      12.88      14.13
H       8.99      15.07      11.09
H      13.65      12.47      15.16
H       5.43      12.81      16.47
H      15.44      14.20      15.00
H       8.82      10.34      17.53
H       9.55      10.48      15.13
H       6.01       8.87      19.90
H       3.89      12.79      19.20
H       1.74      13.91      19.81
H      16.30      13.94      22.18
H       5.62      22.08      21.09
H       8.14      12.82      20.61
H       7.76      14.90      13.14
H      15.99      13.28      10.98
H       4.82      12.15      10.81
H       7.67      15.13       8.77
H       2.43      11.51      10.84
H       4.20       3.31       9.07
H       5.94       3.42       7.30
H       7.67      17.01       7.14
H       4.20      18.36      13.44
H      13.99      17.85      14.13
H       1.32      15.67      11.10
H       5.99      18.26      15.16
H      13.09      17.91      16.47
H       7.78      16.52      15.00
H       1.16      20.38      17.53
H       1.89      20.24      15.13
H      13.68      21.86      19.91
H      11.55      17.94      19.20
H       9.41      16.81      19.81
H       8.64      16.78      22.17
H      13.29       8.65      21.10
H      15.80      17.91      20.61
H       1.31       7.22       9.14
H       8.40       5.59      11.30
H       4.24       4.46      11.47
H       1.40       7.45      13.51
H       6.64      19.20      11.44
H       4.87      11.00      13.21
H       3.14      11.11      14.98
H       1.40       9.33      15.14
H       4.87      10.67       8.84
H      10.40      10.17       8.15
H       7.75       7.98      11.19
H       3.09      10.58       7.12
H      11.30      10.23       5.81
H       1.30       8.84       7.28
H       7.91      12.70       4.74
H       7.19      12.57       7.14
H      10.72      14.18       2.37
H      12.84      10.26       3.07
H      14.99       9.13       2.46
H       0.43       9.11       0.10
H      11.11       0.97       1.19
H       8.60      10.23       1.66
C      10.80       7.21      12.46
C      12.31       8.78      11.32
C      10.87       8.23      11.31
C      12.73       6.36      11.16
C      13.29       7.79      11.24
C      11.77       6.36       9.96
C      10.77       7.35      10.04
C       9.76       7.40       9.08
C      11.79       6.20      12.38
C      15.01       9.50      11.30
C      12.67      10.13      11.39
C       9.83       7.15      13.46
C      14.03      10.48      11.38
C      11.78       5.15      13.28
C      10.80       5.09      14.28
C      13.93       5.41      11.12
C       9.93       9.43      11.39
C       9.83       6.09      14.37
C      11.76       5.45       8.90
C       2.24       4.65       7.36
C      14.64       8.15      11.24
C      10.75       5.51       7.93
C       2.72       4.62       6.06
C       9.76       6.48       8.02
C       0.83       3.24       5.47
C      15.74       3.32       6.79
C       2.50       3.83       3.75
C       2.94       3.80       2.62
C       3.42       3.79       1.25
C       4.77       4.50       1.06
C       2.45       4.51       0.28
C       2.02       3.89       5.08
C       3.39       1.18       1.33
C       5.53       5.12       2.05
C       6.73       5.75       1.70
C       7.16       5.77       0.37
C       3.61      15.34       0.66
C       1.26       5.14       0.63
C       3.61       2.38       0.67
C      13.59      14.89       9.82
C      12.08      16.47      10.96
C      13.52      15.91      10.97
C      11.66      14.05      11.12
C      11.10      15.48      11.03
C      12.62      14.05      12.32
C      13.63      15.04      12.24
C      14.63      15.09      13.20
C      12.60      13.89       9.90
C       9.39      17.18      10.98
C      11.72      17.81      10.89
C      14.56      14.83       8.82
C      10.37      18.17      10.90
C      12.61      12.83       9.00
C      13.59      12.77       8.00
C      10.46      13.09      11.16
C      14.47      17.11      10.88
C      14.56      13.77       7.91
C      12.63      13.13      13.37
C       6.83      12.33      14.92
C       9.75      15.84      11.04
C      13.64      13.20      14.34
C       6.35      12.29      16.22
C      14.64      14.16      14.26
C       8.24      10.91      16.81
C       8.65      10.99      15.49
C       6.57      11.50      18.53
C       6.13      11.48      19.66
C       5.65      11.47      21.03
C       4.30      12.18      21.23
C       6.62      12.18      22.00
C       7.05      11.56      17.20
C       5.67       8.86      20.94
C       3.54      12.80      20.24
C       2.34      13.43      20.59
C       1.91      13.44      21.91
C       5.45       7.65      21.61
C       7.81      12.81      21.65
C       5.46      10.06      21.61
C       5.93      15.84       9.82
C       4.42      14.26      10.96
C       5.86      14.82      10.97
C       4.00      16.68      11.12
C       3.44      15.25      11.04
C       4.96      16.68      12.32
C       5.96      15.69      12.24
C       6.97      15.64      13.20
C       4.94      16.84       9.90
C       1.73      13.55      10.98
C       4.06      12.92      10.88
C       6.90      15.90       8.82
C       2.71      12.56      10.90
C       4.95      17.90       8.99
C       5.93      17.96       8.00
C       2.80      17.64      11.16
C       6.80      13.62      10.88
C       6.90      16.96       7.91
C       4.97      17.60      13.37
C      14.50      18.40      14.92
C       2.09      14.90      11.04
C       5.98      17.53      14.34
C      14.01      18.43      16.22
C       6.98      16.56      14.26
C      15.90      19.81      16.81
C       0.99      19.73      15.48
C      14.23      19.22      18.53
C      13.79      19.25      19.66
C      13.32      19.25      21.03
C      11.96      18.54      21.22
C      14.28      18.54      22.00
C      14.71      19.16      17.20
C      13.34      21.87      20.94
C      11.21      17.93      20.23
C      10.00      17.29      20.58
C       9.57      17.28      21.91
C      13.12       7.70      21.62
C      15.47      17.91      21.65
C      13.12      20.67      21.61
C       3.14       8.16      12.46
C       4.65       6.58      11.32
C       3.21       7.13      11.31
C       5.07       9.00      11.16
C       5.63       7.57      11.24
C       4.11       9.00       9.96
C       3.11       8.01      10.04
C       2.10       7.96       9.07
C       4.13       9.16      12.37
C       7.34       5.86      11.30
C       5.01       5.24      11.39
C       2.17       8.22      13.46
C       6.36       4.88      11.38
C       4.12      10.22      13.28
C       3.14      10.27      14.28
C       6.27       9.95      11.11
C       2.27       5.93      11.40
C       2.17       9.28      14.37
C       4.10       9.91       8.90
C       9.90      10.72       7.36
C       6.98       7.21      11.24
C       3.09       9.85       7.93
C      10.38      10.76       6.06
C       2.10       8.88       8.02
C       8.49      12.14       5.47
C       8.08      12.06       6.79
C      10.16      11.55       3.75
C      10.60      11.57       2.61
C      11.08      11.58       1.25
C      12.43      10.87       1.05
C      10.11      10.86       0.28
C       9.68      11.48       5.08
C      11.06      14.19       1.34
C      13.19      10.25       2.04
C      14.39       9.62       1.69
C      14.82       9.61       0.37
C      11.28      15.40       0.67
C       8.92      10.23       0.62
C      11.27      12.99       0.66
N       1.11       4.00       7.72
N       7.96      11.68      14.56
N      15.62      19.04      14.56
N       8.77      11.37       7.72
O      14.38       5.06       9.97
O       9.59       9.96      10.29
O      14.45       5.10      12.23
O       9.63       9.88      12.54
O      10.01      12.75      12.30
O      14.81      17.64      11.99
O       9.94      12.79      10.05
O      14.77      17.56       9.73
O       2.36      17.98      12.30
O       7.15      13.09      11.99
O       2.28      17.95      10.05
O       7.10      13.17       9.73
O       6.72      10.30       9.97
O       1.92       5.41      10.29
O       6.79      10.26      12.23
O       1.97       5.48      12.54
