78

Mg       2.19       6.37       4.23
Mg      -2.46       7.94       5.30
Mg      -0.13       8.08       3.40
Mg       0.13       1.09       8.70
Mg       4.78      -0.48       7.63
Mg       2.46      -0.62       9.53
H       4.70      -3.78       7.12
H       2.38       0.59      12.64
H       0.05       3.19       6.10
H      -2.37      11.25       5.81
H      -0.05       6.87       0.29
H       2.27       4.28       6.83
C       1.82       9.13       5.56
C       4.14       7.72       2.24
C      -0.51       5.55       5.13
C       0.51      -1.66       7.37
C      -1.81      -0.25      10.69
C       2.84       1.91       7.81
C       0.86      10.19       5.96
C       3.18       7.53       1.12
C      -1.47       4.67       5.85
C       1.47      -2.73       6.97
C      -0.85      -0.07      11.81
C       3.80       2.79       7.08
C       3.65      -3.76       6.84
C       1.33       0.33      12.76
C      -1.00       3.42       6.26
C      -1.32      11.22       6.09
C       1.00       7.13       0.17
C       3.32       4.04       6.67
C       2.85      -2.74       7.38
C       0.52       0.29      11.62
C      -1.80       2.45       6.87
C      -0.52      10.20       5.55
C       1.81       7.17       1.31
C       4.13       5.02       6.06
C       3.01       4.24       3.31
C      -1.64       8.22       7.60
C       0.68       9.94       2.01
C      -0.68       3.23       9.62
C       3.97      -0.75       5.33
C       1.64      -2.48      10.92
C       0.04       4.20       1.67
C       2.35       6.80       8.46
C      -2.29      11.38       2.81
C       2.29       3.27      11.26
C      -0.02       0.66       4.47
C       4.62      -3.92      10.12
O       1.38       8.16       4.83
O       3.70       7.57       3.45
O      -0.95       6.66       4.65
O       0.95      -0.70       8.10
O      -1.37      -0.10       9.48
O       3.27       0.80       8.28
O       3.02       9.17       5.96
O      -1.63       8.04       2.01
O       0.70       5.18       4.96
O      -0.69      -1.70       6.97
O       3.96      -0.58      10.92
O       1.63       2.28       7.97
O       3.40      -1.86       8.22
O       1.08       0.59      10.43
O      -1.25       1.27       7.21
O      -1.08       9.32       4.71
O       1.25       6.88       2.50
O       3.57       6.19       5.72
O       3.28       3.20       2.92
O      -1.37       8.40       8.70
O       0.96      10.80       1.31
O      -0.96       4.26      10.01
O       3.70      -0.93       4.23
O       1.37      -3.33      11.62
O      -1.07       4.47       1.58
O       1.25       6.59       8.26
O       3.58      11.32       3.08
O       3.39       2.99      11.35
O       1.08       0.87       4.67
O      -1.25      -3.86       9.85
