160

Al       2.07      10.09      12.01
Al       5.43      10.22      12.08
Al       6.88       0.15      24.01
Al       3.88      20.23      23.96
H       6.02       5.81      11.71
H       5.13       2.68       8.27
H       5.45       3.76      10.39
H       2.18      13.46       6.00
H       7.47      17.33       6.41
H       4.86      15.15       4.90
H       3.87       4.17      15.77
H       5.11      12.87      15.44
H       8.04      16.61      17.04
H       2.59      16.83       4.25
H       1.24      14.13       3.50
H       2.31      15.51       7.90
H       4.66      16.92       6.28
H       0.94       8.12       7.28
H       7.07      16.95       8.77
H       6.15       7.39      16.45
H       1.91       6.55      17.56
H       4.74       7.66      19.58
H       4.02       5.81      21.40
H       1.96       5.75      19.56
H       1.60       4.07      16.89
H       7.67      12.95      20.31
H       8.09      14.26      22.53
H       7.37      17.00      23.57
H       4.38      18.08      19.17
H       6.97      12.36      17.56
H       2.78      17.25      20.00
H       6.29       6.67       0.35
H       6.46       1.91       4.78
H       3.79       9.90      10.30
H       7.18      11.07      13.50
H       3.13       0.76       1.55
H       8.53       0.34      22.25
C       3.75       8.66      13.93
C       3.71      12.22      13.30
C       7.11      11.59      10.10
C       7.06       8.09      10.82
C       6.51       3.31       2.03
C       6.84       6.84      10.01
C       6.35       5.74       2.01
C       6.38       4.52       1.36
C       6.59       3.29       3.42
C       6.40       4.49       4.17
C       6.37       5.73       3.43
C       6.28       4.55       5.62
C       6.51       5.77       6.35
C       6.49       6.94       5.54
C       6.37       6.93       4.18
C       5.77       3.49       6.42
C       5.61       3.52       7.76
C       6.03       4.65       8.51
C       6.56       5.79       7.81
C       5.88       4.64       9.91
C       6.22       5.75      10.64
C       7.08       6.85       8.63
C       5.89      14.76       4.77
C       1.69      15.32       5.02
C       1.82      14.44       6.33
C       7.13      12.52       9.00
C       6.92      15.90       4.91
C       6.17      13.68       5.85
C       7.11      14.24       6.97
C       6.58      15.63       7.43
C       6.61      16.66       6.25
C       7.14      13.31       8.08
C       6.86      16.82       3.80
C       6.91      17.62       2.88
C       5.75       5.62      17.06
C       3.74       6.60      18.33
C       3.85       5.51      19.51
C       5.13       2.58      21.00
C       4.22       5.94      16.97
C       6.01       4.79      18.38
C       4.68       4.26      18.99
C       3.89       3.58      17.83
C       3.49       4.59      16.71
C       4.95       3.34      20.07
C       3.99       6.87      15.89
C       3.84       7.68      15.00
C       5.67      17.04      21.80
C       3.53      13.43      14.15
C       6.69      14.88      21.38
C       6.55      16.00      22.18
C       4.97      16.92      20.59
C       5.01      15.75      19.79
C       5.99      14.76      20.16
C       4.22      15.55      18.58
C       4.65      14.60      17.59
C       5.75      13.75      17.95
C       6.30      13.75      19.22
C       2.93      16.18      18.38
C       2.29      16.10      17.16
C       2.79      15.30      16.12
C       3.95      14.48      16.33
C       2.11      15.23      14.89
C       2.45      14.31      13.92
C       4.28      13.56      15.31
C       5.60      18.25      22.64
C       5.16       1.65      22.10
C       6.51       2.02       1.27
C       6.94      18.56       1.79
O       4.88      11.80      13.03
O       2.60       8.93      13.48
O       1.53       8.51      11.07
O       2.61      11.65      12.98
O       1.54      11.17      10.50
O       4.87       9.14      13.57
O       3.76       9.99      11.27
O       5.96      11.28      10.56
O       5.97       8.62      11.19
O       7.11      10.36      12.84
O       4.02       1.43      22.63
O       6.70      18.57      23.24
O       5.82      19.10       1.49
O       6.28       1.14      22.43
O       5.36       1.64       0.87
O       4.51      18.87      22.77
O       3.17       0.17       0.78
O       0.91       1.43       1.09
O       1.36      18.77       1.24
O       8.89      20.13      23.17
O       2.63      16.36       5.11
O       2.03      14.56       3.87
O       2.76      14.92       7.26
O       5.47      17.47       6.20
O       1.16       7.87       8.20
O       7.35      16.05       8.52
O       6.58       6.69      16.99
O       2.40       7.04      18.26
O       4.55       7.69      18.61
O       4.50       6.13      20.61
O       2.60       5.07      19.89
O       2.12       4.86      16.63
O       7.26      12.79      19.43
O       7.60      13.91      21.75
O       7.34      16.04      23.29
O       4.30      18.05      20.15
O       6.26      12.83      17.08
O       2.20      16.77      19.37
O       6.32       6.91       1.30
O       6.94       2.08       3.94
F       6.24       8.13       3.57
F       6.81      12.60       5.26
F       5.95      14.18       3.49
F       5.26      15.50       7.85
F       4.99      13.20       6.35
F       6.66       5.58      19.29
F       4.67       2.58      17.27
F       6.03       4.74      15.97
F       6.85       3.73      18.13
F       2.78       2.93      18.31
F       1.74      14.27      12.77
F       7.76      16.07      14.66
F       8.36       4.68      24.00
F       6.42       8.18       6.12
F       5.23       2.37       5.79
