234

Zr      14.69      14.71      18.14
Zr      -1.68      13.96      16.25
Zr      15.88      17.98      18.68
Zr      15.58      16.73      15.38
Zr      -0.26      16.22       0.27
Zr      -0.49      17.25      16.79
H       8.60      18.35       2.28
H       5.91      17.18       5.46
H      10.18      17.00       6.04
H       6.64      14.79      13.39
H       9.36      15.99      10.25
H       5.10      16.08       9.58
H      18.14       4.87      10.23
H      18.54       4.56       5.96
H       0.33       1.22       8.48
H      17.49       8.75       5.40
H      17.20       9.13       9.68
H      16.18      12.46       7.13
H       5.66       8.72      17.88
H       5.27       4.43      17.98
H       1.92       6.94      19.05
H       9.51       3.87      17.01
H       9.92       8.16      17.08
H      13.33       5.68      16.21
H      14.88      13.96      15.42
H      16.53      16.94       1.35
H      17.75      -0.10      16.31
H       0.70      14.85      17.57
H      12.81       3.62      14.42
H      11.72       2.76      18.49
H      13.33       0.85      18.51
H      14.30       1.61      14.39
H      11.66       9.05      18.42
H      13.82       7.70      14.95
H      15.32       9.69      15.12
H      13.11      11.06      18.54
H       4.22       2.93      19.03
H       0.76       5.41      18.31
H      -0.67       3.40      18.31
H       2.81       0.92      18.81
H       3.55      10.09       1.36
H       3.34       9.70      16.46
H       1.69      11.57      16.40
H       2.01      12.06       1.33
H      -0.37      11.08       4.43
H      14.69      11.87       4.96
H      14.72      13.38       2.96
H      -0.32      12.70       2.52
H      16.07      10.15      11.13
H      16.78      13.64       8.69
H      16.55      15.08      10.68
H      16.05      11.59      13.14
H       0.39       2.14       2.47
H      -0.97      17.90       4.92
H      -0.17       0.04       6.93
H       0.37       3.56       4.48
H       1.75       1.83      10.73
H      16.76       2.45      11.09
H      16.69       0.79      12.95
H       1.69       0.29      12.69
H       3.94      17.40      11.92
H       4.56      13.19      12.58
H       2.49      13.11      13.99
H       1.95      17.33      13.44
H       8.10      15.44      14.69
H      10.78      14.92      11.35
H      12.70      15.02      12.89
H      10.02      15.34      16.24
H       2.53      18.09       2.82
H       4.12      16.82      18.73
H       7.14      17.75       1.01
H       4.46      18.22       4.37
H      11.74       0.60       3.04
H      11.26      15.66       3.67
H      13.20      15.68       2.10
H      13.78       0.65       1.58
C       9.52      17.68       4.10
C       8.41      17.99       3.30
C       7.10      17.80       3.74
C       6.91      17.36       5.07
C       8.01      17.11       5.91
C       9.32      17.24       5.41
C       5.74      15.42      11.55
C       6.83      15.14      12.37
C       8.15      15.36      11.95
C       8.35      15.79      10.63
C       7.27      16.02       9.76
C       5.95      15.86      10.24
C      -0.39       2.97       9.49
C      18.43       4.29       9.35
C      18.36       4.88       8.07
C      -0.58       4.11       6.94
C      -0.15       2.77       7.05
C      -0.02       2.24       8.35
C      16.83      10.68       6.13
C      17.24       9.35       6.28
C      17.33       8.78       7.57
C      17.06       9.58       8.70
C      16.65      10.91       8.57
C      16.51      11.43       7.27
C       3.72       7.96      18.48
C       5.05       7.83      18.08
C       5.63       6.55      17.95
C       4.82       5.41      18.16
C       3.48       5.52      18.55
C       2.96       6.81      18.74
C      11.48       4.63      16.55
C      10.13       4.76      16.88
C       9.55       6.04      17.05
C      10.37       7.18      16.93
C      11.73       7.06      16.63
C      12.27       5.79      16.40
C      14.16      17.76       0.71
C      15.06      11.78      16.91
C      12.69      15.39      15.53
C      16.92      14.21       1.61
C       1.04      15.25      14.84
C       0.20       0.80      18.25
C      16.41      14.22      13.30
C       0.13      12.45      18.38
C      -0.96      18.76       2.32
C      14.99       0.10      16.56
C      -0.55      -0.63      13.97
C       2.57      17.71       0.17
C      12.90       2.99      15.30
C      12.18       3.33      16.46
C      12.28       2.50      17.59
C      13.17       1.43      17.60
C      13.92       1.13      16.46
C      13.74       1.87      15.29
C      12.44       9.20      17.68
C      12.62       8.25      16.66
C      13.68       8.43      15.75
C      14.51       9.54      15.84
C      14.30      10.50      16.83
C      13.26      10.31      17.76
C       3.16       3.05      18.84
C       2.61       4.33      18.65
C       1.21       4.43      18.49
C       0.40       3.30      18.46
C       0.98       2.03      18.54
C       2.36       1.91      18.75
C       3.41      10.67       0.44
C       2.99       9.25      18.54
C       2.82      10.00      17.36
C       1.90      11.05      17.33
C       1.19      11.41      18.49
C       2.54      11.75       0.43
C       6.99       6.38      17.61
C       8.17       6.20      17.35
C      17.97      11.58       4.10
C      16.79      11.39       4.83
C      15.61      12.03       4.40
C      15.62      12.87       3.30
C      16.83      13.14       2.64
C      18.00      12.47       3.04
C      16.20      11.23      11.02
C      16.45      11.78       9.75
C      16.56      13.18       9.65
C      16.45      14.00      10.77
C      16.30      13.43      12.04
C      16.16      12.04      12.15
C       0.31       1.69       3.46
C       0.23       0.29       3.57
C      -0.90      18.98       4.83
C       0.02       0.52       5.96
C       0.07       1.92       5.87
C       0.28       2.48       4.59
C       0.81       1.63      11.24
C      -0.37       2.23      10.77
C      17.68       1.98      11.44
C      17.63       1.06      12.49
C      -0.45       0.43      12.92
C       0.78       0.76      12.33
C      17.98       6.24       7.91
C      17.69       7.41       7.74
C       3.61      16.46      12.36
C       4.39      15.31      12.17
C       3.97      14.09      12.74
C       2.82      14.04      13.53
C       2.12      15.22      13.81
C       2.51      16.43      13.20
C       9.10      15.29      14.28
C       9.29      15.21      12.89
C      10.60      15.04      12.41
C      11.68      15.07      13.28
C      11.48      15.19      14.67
C      10.18      15.25      15.17
C       3.55      18.07       2.43
C       3.75      17.96       1.04
C       5.06      17.92       0.54
C       6.14      17.89       1.42
C       5.95      17.96       2.82
C       4.64      18.10       3.30
C      11.28      18.97       2.86
C      10.85      17.77       3.44
C      11.59      16.59       3.22
C      12.68      16.61       2.35
C      13.08      17.80       1.73
C      12.41      19.00       2.03
C       7.52      16.41       8.41
C       7.77      16.72       7.26
O      14.91      18.77       0.52
O      16.19      11.95      16.35
O      12.79      14.89      16.69
O      15.94      14.46       0.85
O      18.05      14.84       1.61
O      13.59      16.11      14.94
O      14.43      12.69      17.58
O      14.26      16.63       0.09
O      16.73      14.28      18.10
O      15.05      16.59      17.39
O      15.40      14.55      15.99
O      16.87      16.97       0.44
O       0.31      14.23      15.05
O      -0.99       0.64      18.67
O      15.89      15.37      13.42
O       0.95      14.21       0.11
O      -0.44      17.61       2.20
O      15.30      -0.62      15.56
O      -0.61      18.44      14.76
O       1.38      17.19      18.27
O      16.56      18.02      13.97
O       1.70      16.93       0.73
O      17.07      13.60      14.21
O      15.56       0.06      17.71
O      18.60       0.08       1.44
O      -0.43      12.51      17.23
O       0.97      16.36      15.49
O       0.85      -0.03      17.51
O      -1.54      17.02      18.56
O      17.45      15.98      15.81
O      16.74      18.26      16.61
O      -0.23      15.14      17.55
