60

Al       3.43       5.04       8.60
Al       0.11       5.04       8.63
H      -1.56       6.51       9.57
H       1.74       4.49       6.96
H       3.11       6.74       4.78
H       3.17       7.28       2.34
H       0.47       5.18       4.54
H      -0.18       4.30      12.67
H      -2.66       5.36      12.52
H      -2.63       5.59      15.02
H       0.68       5.64       0.93
H       1.49       5.04       2.32
H      -0.25       4.20      16.34
H      -1.13       3.82      14.90
H       2.18       1.53       8.00
H       2.19       0.03       7.03
H       3.07       1.48       6.48
H      -2.84       8.46      10.68
H      -2.12      10.09      10.50
H      -1.84       8.85       9.27
C       1.73       7.47       8.72
C       1.86       4.76      10.98
C      -1.50       2.66       8.55
C      -1.59       5.52       6.23
C      -1.54       5.91       4.79
C       3.99       6.51       4.18
C       4.03       6.82       2.83
C      -1.47       6.51       2.05
C      -0.33       5.93       2.67
C      -0.39       5.64       4.05
C      -1.46       6.71       0.65
C      -4.67       5.00      16.68
C       1.96       4.99      15.27
C       0.75       4.61      14.60
C       0.74       4.55      13.20
C       1.90       4.80      12.47
C      -3.55       5.16      13.12
C      -3.53       5.28      14.50
C       4.02       0.40       8.07
C      -3.81       9.73       9.23
C      -1.59       1.20       8.58
C       1.81       8.93       8.71
C      -4.11      11.09       8.99
C       1.31      11.31       8.31
C       2.80       0.88       7.36
C      -2.59       9.25       9.96
S      -0.29       0.31       9.33
S       0.52       9.82       7.96
N       0.80       5.67       1.93
N      -0.38       4.35      15.34
O       2.81       6.83       8.98
O       0.74       5.00      10.42
O      -0.38       3.20       8.82
O      -2.73       5.60       6.81
O      -2.57       3.30       8.24
O      -0.51       5.12       6.78
O       0.59       6.94       8.49
O       2.95       4.53      10.37
O      -1.55       5.60       9.24
O       1.76       4.55       7.93
