108

Mg      -1.67       0.60       8.15
Mg       2.49      -1.34       9.44
Mg       0.41       0.75      10.48
Mg       3.76       7.50       5.88
Mg      -0.40       9.45       4.59
Mg       1.68       7.36       3.55
P       1.55       1.15       7.46
P      -0.53      -2.21       9.31
P      -2.61       1.07      11.29
P       0.53       6.95       6.57
P       2.61      10.31       4.73
P       4.69       7.04       2.74
H       1.85       3.57       7.40
H      -0.23      -3.47       7.24
H      -2.31      -0.10      13.42
H       0.23       4.53       6.63
H       2.31      11.57       6.79
H       4.39       8.20       0.61
H       2.27       2.85       8.96
H       0.19      -1.76       7.08
H      -1.89      -1.08      12.02
H      -0.18       5.25       5.07
H       1.90       9.86       6.95
H       3.98       9.18       2.01
H       3.46       2.25       5.53
H       1.38      -4.43       9.32
H      -0.70       2.19      13.21
H      -1.37       5.86       8.50
H       0.71      12.53       4.71
H       2.79       5.91       0.82
H      -1.11       2.70       5.91
H       3.05      -4.33       8.73
H       0.97       1.63      13.42
H       3.19       5.40       8.12
H      -0.97      12.44       5.30
H       1.11       6.47       0.61
H      -0.61       3.51       8.26
H       3.55      -2.70       6.86
H       1.47      -0.81      12.93
H       2.70       4.60       5.77
H      -1.47      10.80       7.17
H       0.61       8.91       1.10
H      -1.94       3.59       9.41
H       2.22      -1.75       6.22
H       0.14      -1.84      12.43
H       4.03       4.51       4.62
H      -0.13       9.85       7.81
H       1.95       9.94       1.60
H      -0.24       0.41       5.94
H       3.92      -3.16      10.71
H       1.84       2.76      11.42
H       2.32       7.69       8.09
H      -1.84      11.27       3.32
H       0.24       5.35       2.61
H       4.50      -0.05       5.46
H       2.42      -3.34      11.35
H       0.34       3.40      11.25
H      -2.42       8.16       8.57
H      -0.33      11.45       2.68
H       1.75       4.70       2.78
C       2.38       2.73       7.87
C       0.30      -2.64       7.73
C      -1.78      -0.08      12.45
C      -0.30       5.38       6.16
C       1.78      10.74       6.30
C       3.86       8.18       1.58
C       4.08       2.95       6.11
C       2.00      -4.28       8.42
C      -0.08       1.34      13.52
C      -1.99       5.16       7.92
C       0.09      12.38       5.61
C       2.17       6.76       0.51
C      -1.68       3.73       8.35
C       2.48      -2.73       6.63
C       0.40      -0.99      13.08
C       3.77       4.37       5.68
C      -0.39      10.83       7.40
C       1.69       9.10       0.95
N       3.83       2.70       7.56
N       1.75      -2.90       7.91
N      -0.33       0.21      12.59
N      -1.75       5.40       6.47
N       0.33      11.00       6.12
N       2.41       7.90       1.44
O       1.18       1.07       5.99
O      -0.91      -3.44      10.11
O       3.26       2.38      11.96
O       0.91       7.04       8.04
O       2.99      11.55       3.92
O      -1.17       5.72       2.07
O       0.32       1.08       8.39
O      -1.77      -1.37       8.90
O       2.40       0.29      10.77
O       1.77       7.02       5.64
O       3.85       9.47       5.13
O      -0.31       7.81       3.26
O       2.59       0.09       7.91
O       0.51      -1.29      10.00
O      -1.57       1.21      10.15
O      -0.50       8.02       6.12
O       1.58       9.39       4.03
O       3.66       6.89       3.88
O      -1.14       0.00       6.22
O       3.02      -2.71      10.92
O       0.94       2.72      10.92
O       3.22       8.10       7.81
O      -0.94      10.82       3.11
O       1.14       5.38       3.11
