144

Zn       3.92      18.75      15.13
Zn      14.74       7.65       0.01
Zn       8.67      13.83       6.54
Zn      10.29      12.74       8.39
Zn      21.11       5.08       8.59
Zn       3.92       3.92       6.67
H      10.91       9.82       4.11
H       2.78       5.62       2.83
H       1.48       8.07       1.47
H       1.29       6.37       0.96
H       5.31      18.08      10.85
H       6.42      16.98       8.92
H       7.06      14.25      14.07
H      18.68      17.15      11.25
H      13.74       9.78       4.38
H      17.31      18.45       9.65
H      18.20      22.95      12.36
H      18.59      21.19      14.81
H       8.23       9.00       9.70
H       6.13       7.71       4.39
H       4.60       8.40       5.03
H      13.64      12.45       5.28
H      14.75      17.54       5.84
H      12.63      19.66      10.28
H      11.47      20.28       9.06
H      11.14      13.36       2.27
H      11.25      10.64       1.42
H      15.92       6.66       4.41
H      17.43       6.09       6.29
H       3.01       7.32       3.32
H       9.14      13.97      12.69
H       8.74      12.28      13.11
H       9.19      12.71      11.44
H      16.62      23.24      14.29
H      15.72      22.76      12.83
H      16.05      21.56      14.10
H       5.91       6.28      10.22
H       7.54       5.76       9.77
H       7.34       7.14      10.86
H       4.63      10.81       5.95
H       5.98      11.89       5.53
H       5.03      11.10       4.23
H      12.65      15.00       5.20
H      14.40      15.25       5.33
H      13.54      14.24       6.51
H      13.88      14.63       2.94
H      15.24      13.48       2.76
H      14.16      13.80       1.39
C      16.65       7.45       1.85
C      11.72      12.56       2.74
C      11.77      11.07       2.28
C      13.34      11.07       2.45
C       0.18       6.88       2.82
C      17.51       6.96       2.97
C      17.00       6.63       4.25
C      17.85       6.30       5.31
C      19.25       6.21       5.14
C       1.02       6.48       3.85
C       2.27       6.58       3.00
C      14.28      10.38       1.55
C       1.32       7.05       1.83
C       6.11      15.13      12.28
C       5.57      16.42      12.20
C       5.72      17.07      10.96
C       6.36      16.46       9.88
C       6.97      15.20      10.00
C       6.83      14.57      11.23
C       7.21      13.33      12.02
C       6.40      14.00      13.23
C      18.65      20.13      12.83
C      19.99      18.11      13.48
C      19.01      18.80      12.60
C      18.44      18.19      11.47
C      17.64      18.92      10.58
C      17.27      20.25      10.83
C      17.75      20.81      12.01
C      17.76      22.08      12.86
C      18.83      21.31      13.75
C       8.40      10.97       7.83
C      10.64      12.60       5.28
C      11.29      15.12       7.84
C       4.82      17.03      13.34
C       7.76      14.58       8.90
C      14.53      19.94       7.17
C      20.18       5.80       6.22
C       5.17       6.11       7.55
C      16.56      21.05       9.80
C       6.90       9.33       6.63
C       7.65       9.69       7.75
C       7.64       8.76       8.81
C       6.89       7.57       8.79
C       6.13       7.25       7.63
C      13.15      10.58       3.94
C       6.21       8.13       6.56
C       5.69       8.37       5.16
C       6.39       9.78       5.27
C      12.01      17.46       8.50
C      12.20      16.31       7.75
C      13.22      16.35       6.77
C      13.97      17.52       6.60
C      13.76      18.69       7.35
C      12.76      18.62       8.32
C      12.04      19.40       9.40
C      11.60      10.59       3.76
C      11.16      18.09       9.57
C      11.56      12.10       4.23
C      13.12      12.06       4.41
C      13.29      12.57       2.93
C       8.66      13.05      12.33
C      16.46      22.43      13.57
C       6.92       6.65       9.97
C       5.46      10.98       5.24
C      13.47      15.15       5.91
C      14.19      13.68       2.48
Br       6.39      11.70      11.25
Br       4.92      13.04      14.06
Br       1.90      22.18      13.72
Br       7.83      10.04       3.92
Br      11.27      17.25      11.34
Br       9.28      18.33       9.07
O      -1.67       8.52       1.29
O       9.40      11.03       8.65
O       9.62      13.30       4.93
O      10.95      12.30       6.48
O      10.28      15.14       7.08
O      11.60      14.17       8.65
O       7.43      14.82       7.68
O       8.73      13.84       9.26
O      14.17      20.93       7.88
O      15.51      19.95       6.33
O      19.84       6.01       7.45
O      15.61       6.77       1.53
O       2.56       5.26       5.85
O       4.16       6.17       8.32
O       5.39       5.20       6.67
O      15.67      21.90      10.19
O      -1.78      20.87       8.60
O      15.35      11.00       1.16
O      13.98       9.18       1.24
O       2.30      18.80      13.80
O      19.75      16.91      13.87
O       5.12      18.24      13.68
O       3.95      16.30      13.89
O       8.03      11.91       7.06
