62

Al       0.04      17.25      14.94
Al       4.02       8.62       9.96
H       2.93      11.67       6.23
H       1.15      11.66       6.25
H       1.12      11.67       3.73
H       2.90      11.66       3.71
H       2.93      10.33      14.46
H       1.15      10.32      14.44
H       1.12       3.87       0.78
H       2.90       3.89       0.78
H       2.93      21.12       9.18
H       1.15      21.14       9.18
H       1.12      18.95      10.43
H       2.90      18.94      10.45
C       2.05      19.03      13.95
C       2.05       8.59       2.04
C       2.05      15.50      13.88
C       2.01       8.59       7.92
C       2.01      10.41      10.95
C       2.01       6.88      11.01
C       2.04       8.54       6.42
C       2.01       8.54       3.53
C       2.04       9.71       5.68
C       2.03       7.33       4.27
C       2.01       9.71       4.28
C       2.03       7.33       5.68
C       2.04      11.23       5.77
C       2.01      11.23       4.19
C       2.04      11.73      11.65
C       2.01      14.23      13.09
C       2.04      11.79      13.04
C       2.03      14.19      11.68
C       2.01      13.00      13.74
C       2.03      12.97      10.98
C       2.04      10.95      14.30
C       2.01       3.70       0.16
C       2.04      22.85      11.80
C       2.01      20.35      13.24
C       2.04      21.62      11.16
C       2.03      21.59      13.92
C       2.01      20.41      11.86
C       2.03      22.82      13.21
C       2.04      20.95       9.80
C       2.01      19.57      10.59
Br       1.97       5.69       3.33
Br       2.09       5.69       6.63
Br       1.97      15.83      10.73
Br       2.09      12.98       9.08
Br       1.97      12.98       0.88
Br       2.09      24.46      14.16
O       1.11      15.67      14.73
O       1.11      18.22      13.68
O       1.11       9.23       1.47
O       3.02      16.29      13.68
O       3.02       8.02       1.46
O       3.02      18.82      14.73
O       1.03       7.66      11.21
O       1.03       8.02       8.50
O       1.03      10.19      10.16
O       2.94       7.05      10.17
O       2.94       9.59      11.22
O       2.94       9.23       8.49
