198

Al       4.53       4.97      13.75
Al       7.72       4.95      13.74
Al       6.30       2.31      13.80
Al       7.94      10.76      27.24
Al      17.29      10.79      27.18
Al      12.46       2.25      27.24
H       7.59       0.84       5.39
H       2.81       4.08       5.58
H       8.06       6.97       5.13
H       7.12       2.76       7.52
H       4.84       3.31       7.56
H       7.07       5.46       7.41
H       7.44       2.59       5.21
H       4.36       3.29       5.27
H       6.77       5.77       5.10
H      11.09       3.34       5.55
H       9.32      10.96       5.60
H      16.54       8.22       5.69
H      15.54      11.08      23.72
H      13.35       3.57      23.56
H       8.27       9.46      23.57
H      14.83      10.12      21.54
H      12.91       4.52      21.29
H       9.54       9.22      21.44
H      14.53      10.33      19.12
H      13.42       4.62      18.89
H       9.62       8.57      19.07
H      10.63       3.98      23.94
H       3.79       0.55      24.09
H      16.62       8.61      23.68
H      10.59       5.42      21.91
H      11.44      10.99      22.16
H      15.45       7.79      21.64
H      10.27       5.66      19.47
H      11.97      11.09      19.74
H      15.51       7.18      19.24
H       7.39       1.02       7.72
H       3.30       4.11       7.87
H       8.27       6.75       7.45
H       9.60       4.68      17.29
H       5.30       0.89      17.51
H       4.24       6.79      17.17
H      11.10       1.24       8.13
H       1.29       1.00       8.34
H       5.83       9.52       8.06
H       9.73       0.14       8.18
H      13.78       2.77       8.31
H       7.55       9.14       7.97
H      16.11      11.00       5.87
H      13.30       2.68       6.02
H       7.54       9.37       5.63
H      11.30       0.82       5.84
H       0.86       0.92       6.05
H       5.86       9.92       5.75
H       9.12       4.34       7.51
H       4.95       0.76       7.61
H       4.62       6.02       7.58
H      10.74       3.73       7.84
H       9.75      11.00       7.90
H      16.66       7.66       7.97
H       9.51       4.06       5.22
H       4.51       0.74       5.30
H       4.33       6.53       5.31
H       7.01       0.44      16.41
H      15.22       5.10      16.30
H       9.07       6.45      16.39
H      14.95       5.77      13.15
H       9.70       9.05       0.35
C       4.25       2.64      11.94
C       6.43       6.39      11.83
C       8.31       2.78      11.91
C      10.02       3.29       5.81
C       3.58       0.71       5.89
C       4.70       7.40       5.87
C       9.80       3.50       7.32
C       3.87       0.72       7.41
C       4.82       7.08       7.38
C       9.69       1.70       3.94
C       2.40       1.87       4.08
C       5.99       8.06       3.87
C       8.99       2.40       9.39
C       3.51       2.04       9.48
C       6.35       7.16       9.30
C       8.79       2.54      10.58
C       3.78       2.21      10.65
C       6.41       6.91      10.49
C       6.16       9.49      25.18
C      10.37       1.69      25.38
C       1.88       1.90      25.37
C       6.00       8.84       1.35
C      10.40       1.27       1.43
C       1.80       1.45       1.54
C       8.58       1.44      17.64
C       2.85       3.27      17.60
C       7.56       7.51      17.60
C       8.84       1.26      19.02
C       2.48       3.16      18.96
C       7.52       8.01      18.93
C       9.24       0.98      21.84
C       1.86       3.03      21.75
C       7.42       8.79      21.69
C       4.37       2.62      15.71
C       6.30       6.42      15.65
C       8.43       2.99      15.63
C      15.03      11.07      21.04
C      13.71       3.90      20.87
C       8.64       8.86      20.93
C      14.85      11.19      19.70
C      14.00       3.97      19.54
C       8.69       8.49      19.62
C       9.46       0.85      23.22
C       1.58       2.96      23.12
C       7.37       9.13      23.05
C       9.97       1.93      23.96
C       2.28       2.07      23.95
C       6.17       9.06      23.75
C       9.37       3.74      17.79
C       4.54       1.53      17.93
C       5.15       7.11      17.69
C       9.60       3.61      19.17
C       4.22       1.43      19.29
C       5.08       7.54      19.02
C       9.32       2.36      19.80
C       3.19       2.27      19.82
C       6.28       7.98      19.66
C      10.07       4.71      19.96
C       4.92       0.54      20.16
C      16.41       7.51      19.75
C      10.25       4.58      21.31
C       4.63       0.48      21.50
C      16.38       7.85      21.07
C       9.99       3.33      21.97
C       3.61       1.30      22.06
C       5.00       8.29      21.76
C       7.81       1.94       7.28
C       3.75       3.24       7.38
C       7.25       6.50       7.12
C       9.52       2.23      21.20
C       2.89       2.20      21.21
C       6.23       8.36      21.03
C      10.22       3.16      23.35
C       3.28       1.24      23.42
C       4.99       8.65      23.11
C       8.83       2.70      17.04
C       3.89       2.45      17.11
C       6.36       7.04      17.00
C      10.12       1.03       7.68
C       1.68       1.89       7.83
C       6.57       8.89       7.55
C      10.25       0.80       6.15
C       1.38       1.85       6.32
C       6.54       9.10       6.02
C       9.91       1.53       2.76
C       2.17       1.78       2.89
C       5.95       8.30       2.68
C       9.18       2.23       7.96
C       3.21       1.96       8.06
C       6.25       7.41       7.88
C       7.99       1.80       5.74
C       3.44       3.22       5.87
C       7.10       6.69       5.59
C       9.48       1.90       5.37
C       2.70       1.92       5.50
C       6.07       7.81       5.30
C       8.01       0.28      16.87
C      14.66       4.24      16.72
C       8.87       7.41      16.91
O       5.32       6.19      12.39
O       8.70       3.84      12.52
O       4.94       1.81      12.64
O       2.11       0.29       1.15
O      17.43       9.07       0.77
O      11.17       2.16       0.93
O       3.99       3.84      12.24
O       7.59       6.11      12.31
O       7.46       1.94      12.37
O       5.18       5.95      15.28
O       8.66       4.16      15.18
O       5.32       1.83      15.30
O       3.89       3.56      15.02
O       7.38       6.35      14.94
O       7.81       2.09      14.97
O       6.20       4.06      13.75
O       2.33       0.90      25.99
O      17.58       9.59      25.78
O      11.09       2.57      25.96
O       7.28       9.77      25.70
O      10.03       0.57      25.91
O      13.59       2.75      25.86
O      12.55       0.49      27.24
O       7.14       9.10       0.88
O      10.08       0.16       0.89
O      13.70       2.33       0.86
O      14.83      10.37      16.81
O      13.46       4.13      16.54
O       9.73       8.29      16.92
O      15.58       5.84      13.87
O       9.49       9.93      27.23
