44

Zn       6.05       3.54       4.24
Zn       3.68       5.69       4.22
Zn       5.71       5.62       6.73
Zn       3.66       3.21       6.28
H       3.78      -0.99       6.49
H       1.74       0.61       8.70
H      -0.75       5.46       6.62
H      10.23       3.59       4.16
H       6.49      -0.21       3.69
H       5.34       5.58      10.55
H       2.78       3.83       0.12
H       3.79       2.59       0.94
H       2.78      -0.61       9.49
H       1.05      -0.50       9.92
C       1.21       4.28       5.06
C       5.19      -0.59       4.99
C       4.43       9.59       5.77
C       9.81       4.83       5.81
C       2.28       1.08      10.74
C       1.94       0.08       9.64
C      -0.28       4.20       4.96
C       4.41       3.95      10.42
C       5.15       4.89       0.27
C       8.34       4.72       5.68
C       5.05       4.80       1.77
C       4.51       4.13       8.96
C       4.52       8.11       5.68
C       5.03       0.89       5.10
O       4.78       4.53       5.36
O       3.82       7.56       4.76
O       4.13       1.35       5.86
O       5.26       7.52       6.53
O       5.85       1.56       4.37
O       6.06      10.00       4.08
O       6.29       6.95       0.44
O       3.47       1.78      10.31
O       5.76       3.91       2.32
O       3.89       3.33       8.20
O       1.78       5.15       4.33
O       7.65       5.38       6.53
O       1.76       3.44       5.84
O       7.89       3.97       4.74
O       4.22       5.59       2.33
O       5.22       5.15       8.59
