178

Zn      -5.47      -3.16      10.90
Zn      19.62      -3.16      10.89
Zn      -7.08      -4.08      13.52
Zn       7.08      18.57      10.89
Zn      19.62      11.32       0.66
Zn       7.07       4.08      21.14
Zn      22.83      11.32       0.66
Zn      21.22      14.11       0.66
H      16.80      17.31       4.50
H      14.63      13.55       4.50
H      13.67      19.12       7.06
H      11.50      15.36       7.06
H      11.49       1.53      16.84
H      13.67       0.28      20.38
H      14.63      -0.28      14.28
H      16.80      -1.53      17.82
H       2.65       1.53      16.84
H       0.48       0.27      20.38
H      -0.48      -0.28      14.28
H      -2.65      -1.54      17.82
H      25.65      17.31       4.49
H      27.82      13.55       4.50
H      28.78      19.12       7.06
H      30.95      15.36       7.06
H      23.40       5.89       4.50
H      19.06       5.89       4.50
H      23.40       2.27       7.06
H      19.06       2.28       7.05
H       7.08       9.19      16.84
H       7.08      11.69      20.38
H       7.08      12.81      14.28
H       7.08      15.32      17.82
C      21.22      -1.13       9.46
C      18.66      -2.60      13.64
C      -4.52      -2.61      13.64
C       7.07      17.47      13.64
C       9.63      18.94       9.46
C      32.81      18.94       9.46
C       4.51       2.60      21.02
C       9.63       2.60      21.01
C      21.22       9.30       2.09
C      23.78      13.73       2.09
C      18.66      13.73       2.09
C       7.07       7.04      21.01
C      17.60      14.34       2.96
C      17.66      15.68       3.40
C      16.69      16.27       4.20
C      15.58      15.51       4.61
C      15.48      14.17       4.20
C      16.47      13.62       3.40
C      14.58      16.09       5.42
C      13.72      16.58       6.13
C      12.72      17.16       6.94
C      12.82      18.50       7.35
C      11.83      19.05       8.15
C      10.69      18.33       8.60
C      10.64      16.99       8.15
C      11.61      16.40       7.36
C      10.69       1.99      20.15
C      10.64       2.02      18.74
C      11.61       1.47      17.92
C      12.72       0.83      18.50
C      12.82       0.77      19.90
C      11.83       1.34      20.68
C      13.72       0.25      17.68
C      14.58      -0.25      16.97
C      15.58      -0.83      16.16
C      15.47      -0.77      14.76
C      16.46      -1.34      13.98
C      17.60      -1.99      14.50
C      17.66      -2.02      15.92
C      16.69      -1.47      16.74
C       3.45       1.99      20.15
C       3.51       2.02      18.74
C       2.54       1.46      17.92
C       1.43       0.82      18.50
C       1.33       0.76      19.90
C       2.32       1.33      20.68
C       0.43       0.24      17.68
C      -0.43      -0.25      16.98
C      -1.43      -0.83      16.16
C      -1.33      -0.77      14.76
C      -2.32      -1.34      13.98
C      -3.46      -2.00      14.51
C      -3.51      -2.03      15.92
C      -2.54      -1.47      16.74
C      24.84      14.34       2.96
C      24.79      15.68       3.40
C      25.76      16.27       4.20
C      26.87      15.51       4.61
C      26.97      14.17       4.20
C      25.98      13.62       3.40
C      27.87      16.09       5.42
C      28.73      16.58       6.13
C      29.73      17.16       6.94
C      29.62      18.50       7.36
C      30.62      19.05       8.15
C      31.75      18.33       8.60
C      31.81      16.99       8.15
C      30.84      16.40       7.35
C      21.23       8.07       2.95
C      22.42       7.45       3.40
C      22.44       6.32       4.20
C      21.23       5.74       4.61
C      20.01       6.32       4.20
C      20.04       7.45       3.40
C      21.23       4.58       5.42
C      21.23       3.59       6.13
C      21.23       2.43       6.94
C      22.44       1.85       7.35
C      22.42       0.72       8.15
C      21.23       0.10       8.60
C      20.04       0.72       8.15
C      20.01       1.85       7.35
C       7.08       8.26      20.15
C       7.08       8.20      18.73
C       7.08       9.32      17.92
C       7.08      10.60      18.50
C       7.08      10.72      19.90
C       7.08       9.57      20.68
C       7.08      11.75      17.68
C       7.08      12.75      16.98
C       7.08      13.90      16.16
C       7.08      13.78      14.76
C       7.07      14.93      13.98
C       7.07      16.24      14.51
C       7.08      16.30      15.92
C       7.08      15.19      16.74
O      21.22      -4.08      11.55
O      22.36      -1.60       9.79
O      18.50      -2.51      12.38
O      -5.49      -3.17      14.24
O      20.09      -1.60       9.79
O      -4.36      -2.51      12.38
O      19.64      -3.17      14.23
O       7.07      18.59      14.24
O       8.66      18.19       9.79
O       7.07      17.28      12.38
O       9.80      20.16       9.79
O      32.65      20.16       9.79
O      33.79      18.19       9.79
O      21.22      12.25       0.00
O       4.35       2.51      22.28
O       8.66       3.17      20.42
O      22.36       9.77       1.76
O       5.49       3.16      20.42
O      20.09       9.77       1.76
O       9.79       2.51      22.27
O      23.94      12.51       1.76
O      19.64      14.47       1.76
O      22.81      14.48       1.76
O      18.50      12.51       1.76
O       7.07       5.91      20.42
O       7.07       7.22      22.27
F      18.69      16.48       3.05
F      16.29      12.33       3.05
F      12.00      20.34       8.51
F       9.61      16.19       8.51
F       9.60       2.62      18.10
F      12.00       1.24      22.01
F      16.29      -1.24      12.64
F      18.69      -2.62      16.55
F       4.54       2.62      18.10
F       2.14       1.23      22.02
F      -2.14      -1.24      12.64
F      -4.54      -2.63      16.55
F      23.76      16.48       3.05
F      26.15      12.33       3.05
F      30.44      20.34       8.51
F      32.84      16.19       8.51
F      23.62       7.94       3.04
F      18.83       7.94       3.05
F      23.62       0.22       8.51
F      18.83       0.23       8.50
F       7.08       7.01      18.10
F       7.08       9.77      22.01
F       7.07      14.73      12.64
F       7.07      17.50      16.55
