244

Cd      13.85       2.33       5.57
Cd      13.83       2.32       2.63
Cd       3.25      14.68      10.82
Cd       3.26      14.69      13.77
B       6.23       1.59       2.33
B      14.61       9.93       5.87
B      10.86      15.42      14.07
B       2.48       7.08      10.52
H      12.76       3.37      12.44
H      14.51       5.11      12.15
H       4.33      13.63       3.95
H       2.58      11.89       4.25
H      13.99       2.11      12.57
H      15.77       3.88      12.03
H       3.10      14.90       3.83
H       1.32      13.13       4.37
H      12.62       4.69      10.16
H      13.20       5.27      14.43
H       4.48      12.32       6.23
H       3.89      11.74       1.96
H      12.79       4.39       7.68
H      11.78       3.38       0.52
H       4.30      12.62       8.71
H       5.31      13.63      15.88
H      14.90       0.85       8.12
H      15.31       1.25       0.08
H       2.19      16.16       8.28
H       1.78      15.75      16.32
H      15.02      16.36      10.61
H       1.51       2.92      13.99
H       2.07       0.64       5.79
H      15.58      14.08       2.41
H       3.12       2.15       0.65
H      14.06      13.05       7.55
H      13.98      14.85      15.74
H       3.03       3.96       8.85
H       2.46       0.70       1.39
H      15.52      13.70       6.81
H      14.64      16.31      15.01
H       1.57       3.31       9.59
H       4.19       0.76       0.91
H      15.45      11.97       7.29
H      12.90      16.25      15.48
H       1.64       5.04       9.11
H       2.00       3.55       5.98
H      12.67      14.17       2.22
H      15.09      13.45      10.41
H       4.42       2.84      14.18
H       3.57       4.39       6.19
H      11.82      12.61       2.00
H      13.52      12.62      10.20
H       5.27       4.40      14.39
H       3.32       2.81       6.92
H      13.41      12.85       1.28
H      13.77      14.20       9.48
H       3.69       4.16      15.11
H       6.28       5.23       6.13
H      10.98       9.90       2.07
H      10.82      11.78      10.26
H       6.12       7.10      14.33
H       6.11       5.91       8.52
H      12.01      11.78      16.08
H      10.98      11.09       7.88
H       5.09       5.23       0.32
H       5.84       4.20      10.30
H      13.73      12.04      14.30
H      11.25      12.81       6.10
H       3.37       4.97       2.10
H       5.70       1.78       9.68
H      16.14      12.17      14.91
H      11.39      15.22       6.71
H       0.95       4.84       1.48
H       5.83       1.11       7.29
H      15.10      10.33       0.91
H      11.26      15.90       9.10
H       1.99       6.68      15.49
H      10.20       2.83       6.54
H      13.35       5.96       1.66
H       6.89      14.18       9.85
H       3.74      11.04      14.74
H       8.63       2.35       7.22
H      13.84       7.54       0.98
H       8.47      14.66       9.18
H       3.25       9.47      15.41
H       8.85       3.99       6.63
H      12.20       7.33       1.57
H       8.24      13.01       9.77
H       4.90       9.68      14.83
H       8.67       0.35       1.33
H      15.84       7.49       6.87
H       8.42      16.65      15.07
H       1.25       9.52       9.53
H      10.24       1.21       1.50
H      14.98       5.92       6.70
H       6.85      15.80      14.89
H       2.11      11.09       9.70
H       8.83       2.01       0.76
H      14.18       7.34       7.44
H       8.27      15.00      15.63
H       2.91       9.67       8.96
C      13.76       3.07      12.09
C      14.82       4.12      12.51
C       3.33      13.94       4.31
C       2.28      12.89       3.89
C      13.76       2.89      10.60
C      14.99       4.12      14.00
C       3.33      14.12       5.80
C       2.10      12.89       2.40
C      13.15       3.83       9.75
C      14.06       4.73      14.84
C       3.95      13.18       6.64
C       3.03      12.27       1.55
C      13.23       3.66       8.38
C      14.22       4.65      16.22
C       3.87      13.34       8.02
C       2.87      12.35       0.18
C      14.43       1.70       8.62
C      16.18       3.44      15.97
C       2.66      15.31       7.78
C       0.91      13.57       0.42
C      14.43       1.81      10.00
C      16.06       3.44      14.59
C       2.66      15.19       6.39
C       1.03      13.57       1.81
C       1.32       2.27       3.63
C      13.95      14.84       4.57
C      15.77      14.73      12.77
C       3.14       2.17      11.83
C       3.35       1.33       1.33
C      14.89      12.80       6.87
C      13.74      15.68      15.06
C       2.20       4.20       9.53
C       3.68       1.87       2.67
C      14.34      12.48       5.52
C      13.41      15.14      13.72
C       2.75       4.53      10.87
C       2.80       2.33       3.69
C      13.89      13.36       4.50
C      14.29      14.68      12.70
C       3.20       3.64      11.89
C       3.58       2.77       4.78
C      13.45      12.59       3.41
C      13.51      14.24      11.61
C       3.65       4.42      12.98
C       3.09       3.42       6.03
C      12.80      13.08       2.17
C      14.01      13.59      10.36
C       4.29       3.92      14.23
C       4.94       2.53       4.41
C      13.68      11.23       3.78
C      12.15      14.48      11.98
C       3.41       5.78      12.61
C       6.13       2.69       5.14
C      13.51      10.03       3.06
C      10.96      14.32      11.26
C       3.58       6.97      13.34
C       6.07       3.12       6.56
C      13.08      10.10       1.64
C      11.03      13.88       9.83
C       4.01       6.91      14.76
C       6.15       4.47       6.91
C      11.73      10.02       1.28
C      10.94      12.53       9.48
C       5.36       6.99      15.11
C       6.07       4.86       8.25
C      13.06      11.81      16.34
C      11.02      12.15       8.14
C       4.03       5.19       0.06
C       5.92       3.89       9.25
C      14.03      11.96      15.34
C      11.17      13.11       7.14
C       3.06       5.04       1.05
C       5.84       2.54       8.91
C      15.38      12.04      15.68
C      11.26      14.47       7.49
C       1.71       4.97       0.71
C       5.91       2.16       7.57
C      14.04      10.26       0.63
C      11.19      14.85       8.83
C       3.05       6.75      15.76
C       7.37       2.40       4.56
C      13.80       8.79       3.64
C       9.72      14.61      11.84
C       3.29       8.21      12.75
C       8.70       2.51       5.07
C      13.68       7.46       3.13
C       8.39      14.50      11.32
C       3.41       9.55      13.27
C       9.12       2.95       6.44
C      13.24       7.05       1.76
C       7.97      14.06       9.96
C       3.85       9.96      14.63
C       9.56       2.16       4.01
C      14.02       6.61       4.19
C       7.54      14.84      12.39
C       3.07      10.40      12.21
C       8.74       1.82       2.88
C      14.37       7.42       5.31
C       8.35      15.19      13.51
C       2.72       9.59      11.08
C       9.16       1.31       1.55
C      14.87       7.00       6.65
C       7.94      15.69      14.85
C       2.22      10.00       9.75
C      11.04       2.21       4.01
C      13.97       5.13       4.19
C       6.06      14.79      12.38
C       3.13      11.88      12.21
N      13.85       2.61       7.82
N      13.56       2.31       0.38
N       3.24      14.40       8.58
N       3.54      14.69      16.02
N       7.45       1.95       3.23
N      14.24       8.72       4.97
N       9.64      15.05      13.17
N       2.85       8.29      11.43
N       4.95       1.99       3.12
N      14.21      11.21       5.08
N      12.14      15.01      13.28
N       2.88       5.80      11.31
O       0.78       2.13       2.48
O      14.10      15.38       5.72
O      16.31      14.88      13.92
O       2.99       1.63      10.68
O       0.69       2.34       4.74
O      13.89      15.47       3.46
O      16.40      14.67      11.66
O       3.20       1.53      12.94
O      11.61       2.47       2.89
O      13.71       4.56       5.30
O       5.49      14.54      13.50
O       3.39      12.45      11.09
O      11.64       2.01       5.12
O      14.16       4.53       3.08
O       5.45      14.99      11.28
O       2.93      12.48      13.31
F       6.29       2.31       1.12
F      13.89       9.87       7.08
F      10.80      14.70      15.28
F       3.20       7.13       9.31
F       6.30      15.50       2.07
F       0.70       9.93       6.13
F      10.80       1.51      14.33
F      16.39       7.07      10.27
