150

Zr      12.48      -4.32      12.45
Zr      -4.16       9.50       1.45
Zr      -2.44       6.42       1.44
Zr      10.76      -1.24      12.46
Zr      10.97       6.41       1.45
Zr      -2.65      -1.23      12.45
H      12.73       4.21       1.16
H       9.98       9.05       1.11
H      -1.38       9.03       1.14
H      12.50      -2.27      10.48
H      10.13      -8.34      12.37
H       8.54       3.05       1.92
H       7.13       1.02       2.23
H      -1.89      13.57       1.46
H      -0.30       2.18      11.91
H       1.13       4.19      11.62
H      14.82      -5.80       8.70
H      -0.22      -1.96       9.13
H       1.18      -2.38       7.12
H      -6.43      10.93       5.26
H       8.62       7.09       4.83
H       7.19       7.53       6.81
H       6.41       6.33       1.48
H       6.68      -0.90      11.88
H       4.21      -0.67      11.59
H       1.91      -1.23      12.36
H       1.63       5.99       1.96
H       4.10       5.80       2.27
H      -2.50       1.41       8.73
H      10.15       1.13       9.13
H       9.83       2.53       7.09
H      10.81       3.85       5.22
H      -1.84       4.13       4.82
H      -1.52       2.70       6.84
H      14.72      -8.33      12.34
H      -0.07       3.04       1.92
H       1.31       1.00       2.25
H      -6.32      13.55       1.49
H       8.47       2.18      11.91
H       7.06       4.21      11.60
H      10.23      -5.82       8.73
H       8.39      -1.96       9.13
H       7.01      -2.37       7.09
H      -2.00      10.95       5.23
H      -0.16       7.09       4.83
H       1.26       7.52       6.84
C      10.38       3.54       0.04
C      10.48       8.67       3.72
C      -2.16       1.69      13.77
C      -2.07      -3.55      10.26
C      -1.88       3.54       0.02
C      10.19      -3.57      10.26
C      10.29       1.69      13.79
C      -1.97       8.69       3.71
C      -4.13       4.91       3.71
C       0.31       7.31       0.05
C      12.45       0.36      10.25
C       8.00      -2.22      13.78
C       9.41      -8.42      13.19
C       8.62       2.20       1.24
C       7.85       1.08       1.40
C       7.95      -0.02       0.51
C      -1.16      13.64       0.65
C      -0.38       3.02      12.59
C       0.41       4.14      12.44
C       0.30       5.24      13.33
C       9.56       2.30       0.17
C      -1.33       2.94      13.65
C      15.54      -5.06       8.35
C      -0.31      -2.90       8.58
C       0.47      -3.13       7.47
C       0.36      -4.35       6.75
C      -7.15      10.19       5.61
C       8.70       8.03       5.38
C       7.91       8.27       6.48
C       8.02       9.49       7.20
C      -1.24      -3.87       9.04
C       9.65       8.99       4.93
C       5.97       6.90       0.66
C       5.99      -1.37      12.57
C       4.63      -1.25      12.41
C       3.74      -1.89      13.32
C       2.34      -1.80      13.18
C       2.33       6.47       1.27
C       3.69       6.37       1.43
C       4.57       7.00       0.52
C       6.53      -2.13      13.65
C       1.79       7.22       0.18
C      -3.49       1.67       8.36
C      11.00       1.52       8.57
C      10.83       2.29       7.45
C      11.96       2.78       6.74
C      11.81       3.59       5.59
C      -2.69       3.74       5.38
C      -2.52       2.96       6.49
C      -3.64       2.46       7.20
C      12.31       1.21       9.04
C      -3.99       4.07       4.92
C      15.43      -8.41      13.17
C      -0.15       2.20       1.24
C       0.61       1.07       1.42
C       0.50      -0.03       0.52
C      -7.04      13.63       0.67
C       8.54       3.02      12.59
C       7.77       4.15      12.43
C       7.88       5.24      13.32
C      -1.07       2.29       0.16
C       9.47       2.94      13.66
C       9.52      -5.07       8.36
C       8.47      -2.90       8.57
C       7.71      -3.13       7.45
C       7.82      -4.35       6.74
C      -1.28      10.21       5.59
C      -0.23       8.02       5.38
C       0.54       8.26       6.49
C       0.43       9.49       7.21
C       9.39      -3.88       9.04
C      -1.16       9.00       4.93
O      10.96      -6.00      12.99
O      -5.59       9.52       3.28
O      -2.73      11.23       0.83
O      13.99      -4.40      10.68
O      -1.65       4.42       0.92
O       9.97      -2.42      10.77
O      10.06       0.81      12.90
O      -1.74       7.54       3.20
O      11.63       5.20       3.26
O      -0.48      -1.67      12.99
O      -3.31       0.05      10.68
O       8.80       6.77       0.85
O      -0.34       6.69       0.96
O      11.34      -0.01      10.77
O       8.66      -1.59      12.88
O      -3.02       5.26       3.18
O      13.91      -5.99      12.97
O      -2.80       9.55       3.26
O      -5.51      11.21       0.87
O      11.04      -4.42      10.70
O      -1.84      -2.40      10.78
O      10.16       4.44       0.94
O      10.25       7.53       3.19
O      -1.93       0.80      12.88
O      12.51      -2.28      11.45
O      -2.18       8.59       0.81
O      10.78       8.59       0.82
O      12.72       5.11       0.81
O      -4.19       7.46       1.80
O      11.03      -3.11      13.30
O      -4.41      -0.54      13.31
O      -2.99      -3.10      13.28
