472

Zn       5.57      13.47       7.67
Zn      12.54      13.90       7.49
Zn       8.38       1.21      22.65
Zn       1.40       0.78      22.83
Zn       6.58       2.40       1.47
Zn      13.55       4.94      13.69
Zn       7.37      12.28      28.85
Zn       0.40       9.74      16.62
H       7.65      13.25       5.59
H       0.68      14.12       9.57
H       6.29       1.42      24.73
H      13.26       0.56      20.74
H       8.28      11.71       3.75
H       1.31      15.66      11.41
H       5.66       2.97      26.57
H      12.64      -0.98      18.91
H       4.63       9.54       4.56
H      11.60      17.84      10.60
H       9.32       5.14      25.76
H       2.34      -3.16      19.72
H       4.25      11.08       6.46
H      11.22      16.30       8.70
H       9.70       3.60      23.85
H       2.72      -1.62      21.62
H       8.12      10.93       1.81
H       1.14      16.44      13.34
H       5.83       3.75      28.50
H      12.80      -1.76      16.97
H       8.61       4.10      30.28
H       1.64      -2.11      15.20
H       5.33      10.58       0.04
H      12.30      16.79      15.12
H       6.10       6.41       1.70
H      13.07       0.93      13.46
H       7.85       8.27      28.62
H       0.88      13.75      16.86
H       5.58       7.91       3.57
H      12.56      -0.57      11.58
H       8.36       6.77      26.74
H       1.39      15.25      18.73
H      10.10       2.73      30.13
H       3.13      -0.74      15.35
H       3.85      11.95       0.19
H      10.82      15.42      14.97
H      11.85       2.50      28.46
H       4.88      -0.52      17.02
H       2.09      12.18       1.86
H       9.06      15.20      13.30
H       9.36      -0.18      26.17
H       2.39       2.16      19.31
H       4.58      14.86       4.15
H      11.56      12.52      11.01
H       7.57       0.10      27.81
H       0.60       1.89      17.67
H       6.38      14.58       2.51
H      13.35      12.79      12.65
H      13.46       1.63      27.46
H       6.49       0.35      18.01
H       0.48      13.05       2.85
H       7.45      14.33      12.30
H       1.24       1.43      25.70
H       8.22       0.56      19.78
H      12.70      13.25       4.62
H       5.73      14.12      10.54
H      12.38       0.23      22.89
H       5.41       1.76      22.58
H       1.57      14.45       7.42
H       8.54      12.92       7.74
H      10.56       0.31      24.52
H       3.58       1.68      20.96
H       3.39      14.37       5.80
H      10.36      13.00       9.36
H       8.64       4.37       0.36
H       1.66       2.97      14.80
H       5.31      10.30      29.96
H      12.28      11.71      15.51
H      10.58      -1.11      29.19
H       3.61       3.10      16.29
H       3.36      15.79       1.13
H      10.33      11.58      14.03
H      10.33      14.60      29.54
H       3.36       7.42      15.94
H       3.62       0.08       0.78
H      10.59       7.26      14.38
H       8.40       0.25       0.70
H       1.43       7.09      14.46
H       5.55      14.43      29.62
H      12.52       7.59      15.86
H      12.26      -1.33      28.10
H       5.29       3.32      17.38
H       1.68      16.01       2.22
H       8.66      11.36      12.94
H      13.82      -1.56      26.23
H       6.85       3.54      19.25
H       0.12      16.24       4.09
H       7.09      11.14      11.07
H      13.12      14.22      26.16
H       6.15       7.80      19.32
H       0.82       0.46       4.16
H       7.79       6.88      11.00
H      11.51      14.44      27.96
H       4.54       7.58      17.52
H       2.43       0.24       2.36
H       9.40       7.10      12.80
H       2.38      -4.09      23.21
H       9.35       6.08      22.27
H      11.56      18.77       7.11
H       4.59       8.60       8.05
H       2.38      14.46      21.24
H       9.35       7.56      24.23
H      11.57       0.22       9.08
H       4.59       7.12       6.08
H      12.31      13.20      22.22
H       5.34       8.82      23.26
H       1.63       1.48       8.10
H       8.61       5.86       7.06
H      12.31      14.67      24.16
H       5.34       7.35      21.32
H       1.63       0.01       6.16
H       8.60       7.33       9.00
H       2.54      12.62      20.22
H       9.51       9.40      25.26
H      11.41       2.06      10.10
H       4.44       5.28       5.06
H       2.44      11.09      18.27
H       9.42      10.93      27.21
H      11.50       3.59      12.05
H       4.53       3.75       3.11
H      12.25      11.14      18.23
H       5.28      10.87      27.24
H       1.69       3.53      12.08
H       8.67       3.80       3.07
H      12.15      12.68      20.17
H       5.18       9.34      25.31
H       1.79       2.00      10.15
H       8.77       5.34       5.01
H       3.98      17.46       6.31
H      10.95       9.91       8.85
H       9.96      -2.79      24.01
H       2.99       4.77      21.46
H       3.79      -0.49       4.88
H      10.76       7.83      10.28
H      10.16      15.17      25.44
H       3.18       6.85      20.04
H       7.54      18.62       3.02
H       0.56       8.75      12.14
H       6.41      -3.94      27.29
H      13.38       5.93      18.18
H       7.78      16.59       4.50
H       0.80      10.78      10.65
H       6.17      -1.92      25.81
H      13.14       3.90      19.66
H       4.08       9.62      10.92
H      11.06      17.75       4.24
H       9.86       5.06      19.39
H       2.89      -3.07      26.08
H       3.00       9.29      13.15
H       9.98      18.08       2.01
H      10.94       5.39      17.16
H       3.97      -3.40      28.31
H       1.71      13.38      13.15
H       8.69      13.99       2.01
H      12.23       1.30      17.17
H       5.26       0.69      28.31
H       2.80      13.71      10.90
H       9.77      13.66       4.26
H      11.15       0.97      19.41
H       4.18       1.02      26.06
H       6.96       0.76      29.95
H      13.94       1.23      15.52
H       6.98      13.92       0.36
H       0.01      13.45      14.80
H       1.09      -2.96      24.76
H       8.06       4.94      20.71
H      12.85      17.64       5.55
H       5.88       9.73       9.61
C       7.04      12.39       5.34
C       0.07      14.98       9.82
C       6.90       2.29      24.98
C      13.88      -0.30      20.50
C       7.36      11.54       4.30
C       0.38      15.84      10.86
C       6.59       3.14      26.02
C      13.56      -1.16      19.46
C       6.51      10.46       3.97
C      13.48      16.91      11.19
C       7.43       4.22      26.35
C       0.46      -2.23      19.13
C       5.35      10.32       4.76
C      12.33      17.05      10.40
C       8.59       4.36      25.55
C       1.62      -2.37      19.92
C       5.12      11.19       5.81
C      12.09      16.18       9.34
C       8.83       3.49      24.50
C       1.86      -1.50      20.97
C       6.82       9.55       2.87
C      13.80      17.82      12.29
C       7.12       5.13      27.45
C       0.15      -3.15      18.03
C       7.70       9.92       1.84
C       0.73      17.45      13.32
C       6.24       4.76      28.48
C      13.21      -2.77      16.99
C       8.00       9.08       0.78
C       1.03      -1.74      14.38
C       5.94       5.60      29.54
C      12.91      16.42      15.94
C       7.43       7.79       0.71
C       0.46      -0.45      14.45
C       6.51       6.89      29.61
C      13.48      15.13      15.87
C       6.54       7.40       1.74
C      13.52      -0.06      13.42
C       7.40       7.28      28.58
C       0.43      14.74      16.90
C       6.25       8.26       2.78
C      13.22      -0.92      12.38
C       7.70       6.42      27.53
C       0.72      15.60      17.94
C       8.67       1.48      29.07
C       1.69       0.51      16.41
C       5.28      13.20       1.25
C      12.25      14.17      13.91
C       9.91       2.13      29.24
C       2.94      -0.14      16.24
C       4.04      12.55       1.08
C      11.01      14.82      14.08
C      10.92       1.97      28.30
C       3.95       0.02      17.18
C       3.03      12.71       2.02
C      10.00      14.66      13.14
C      10.75       1.16      27.16
C       3.78       0.82      18.32
C       3.19      13.51       3.16
C      10.17      13.86      12.00
C       9.52       0.50      27.01
C       2.55       1.49      18.47
C       4.43      14.18       3.31
C      11.40      13.19      11.85
C       8.50       0.65      27.94
C       1.53       1.34      17.54
C       5.44      14.03       2.38
C      12.42      13.34      12.78
C      11.82       1.03      26.16
C       4.85       0.96      19.32
C       2.13      13.65       4.16
C       9.10      13.72      11.00
C      13.16       1.33      26.46
C       6.19       0.66      19.01
C       0.78      13.35       3.86
C       7.75      14.02      11.30
C       0.19       1.21      25.49
C       7.17       0.78      19.99
C      13.75      13.47       4.83
C       6.78      13.90      10.33
C      12.58       0.52      23.92
C       5.61       1.47      21.55
C       1.36      14.16       6.39
C       8.33      13.21       8.76
C      11.56       0.59      24.85
C       4.58       1.39      20.63
C       2.39      14.09       5.47
C       9.36      13.28       9.69
C       9.06       3.41       0.09
C       2.09       3.93      15.07
C       4.88      11.27      30.22
C      11.85      10.75      15.25
C      10.16      -2.04      29.57
C       3.19       4.02      15.90
C       3.78      16.72       0.74
C      10.76      10.66      14.42
C      10.66      -3.30      29.18
C       3.69       5.29      16.29
C       3.28      17.98       1.13
C      10.26       9.39      14.03
C      10.02      -4.41      29.76
C       3.05       6.40      15.71
C       3.92      19.09       0.55
C      10.90       8.28      14.61
C       8.93       1.11       0.28
C       1.95       6.23      14.88
C       5.02      13.57      30.04
C      11.99       8.45      15.44
C      11.73      -3.44      28.18
C       4.75       5.42      17.29
C       2.22      18.12       2.14
C       9.19       9.25      13.02
C      12.43      -2.32      27.68
C       5.46       4.31      17.80
C       1.52      17.00       2.64
C       8.49      10.37      12.52
C      13.32      -2.44      26.62
C       6.35       4.43      18.86
C       0.63      17.12       3.70
C       7.60      10.25      11.46
C      13.54      -3.69      26.01
C       6.57       5.68      19.47
C       0.40      18.37       4.31
C       7.37       9.00      10.85
C      12.92      15.21      26.56
C       5.94       6.81      18.91
C       1.03      -0.53       3.75
C       8.00       7.87      11.40
C      12.03      -4.69      27.62
C       5.05       6.68      17.86
C       1.92      19.37       2.70
C       8.89       8.00      12.46
C       0.39      15.39      23.85
C       7.37       6.63      21.62
C      13.55      -0.71       6.46
C       6.58       8.05       8.70
C       1.51      15.32      22.99
C       8.48       6.70      22.49
C      12.43      -0.64       7.33
C       5.46       7.98       7.83
C       1.50      14.48      21.88
C       8.47       7.53      23.59
C      12.45       0.19       8.43
C       5.47       7.14       6.73
C       0.38      13.69      21.56
C       7.35       8.33      23.91
C      13.57       0.99       8.75
C       6.60       6.35       6.40
C      13.20      13.79      22.42
C       6.23       8.23      23.06
C       0.74       0.89       7.90
C       7.71       6.45       7.26
C      13.21      14.61      23.54
C       6.23       7.41      21.94
C       0.74       0.07       6.78
C       7.71       7.27       8.38
C       0.37      12.81      20.40
C       7.35       9.21      25.08
C      13.57       1.87       9.92
C       6.60       5.47       5.24
C       1.57      12.35      19.80
C       8.54       9.67      25.67
C      12.38       2.33      10.51
C       5.40       5.01       4.64
C       1.53      11.49      18.71
C       8.51      10.52      26.76
C      12.41       3.19      11.61
C       5.44       4.15       3.55
C      13.17      11.51      18.70
C       6.19      10.51      26.77
C       0.78       3.17      11.61
C       7.75       4.17       3.54
C      13.12      12.35      19.80
C       6.15       9.67      25.68
C       0.82       2.33      10.52
C       7.79       5.01       4.64
C       6.08      15.70       6.33
C      13.05      11.67       8.82
C       7.87      -1.02      23.98
C       0.90       3.01      21.49
C       5.90      16.92       5.49
C      12.87      10.45       9.67
C       8.05      -2.24      24.83
C       1.07       4.23      20.65
C       4.76      17.74       5.59
C      11.73       9.63       9.57
C       9.18      -3.06      24.72
C       2.21       5.04      20.75
C       4.65      18.88       4.80
C      11.62       8.49      10.36
C       9.30      -4.20      25.52
C       2.32       6.19      19.96
C       5.65      19.20       3.88
C      12.63       8.17      11.28
C       8.29      -4.52      26.44
C       1.32       6.51      19.04
C       6.77      18.36       3.75
C      13.75       9.01      11.40
C       7.17      -3.68      26.56
C       0.20       5.67      18.91
C       6.90      17.24       4.56
C      13.88      10.13      10.59
C       7.04      -2.56      25.75
C       0.07       4.55      19.72
C       5.56       0.41       3.05
C      12.53       6.93      12.11
C       8.38      14.27      27.27
C       1.41       7.75      18.21
C       4.18      11.91       9.46
C      11.16      15.46       5.70
C       9.76       2.77      20.86
C       2.79      -0.78      24.62
C       3.50      11.70      10.78
C      10.48      15.68       4.38
C      10.44       2.98      19.54
C       3.47      -1.00      25.94
C       3.57      10.45      11.41
C      10.54      16.92       3.74
C      10.38       4.23      18.90
C       3.40      -2.25      26.57
C       2.97      10.26      12.66
C       9.94      17.12       2.50
C      10.98       4.42      17.66
C       4.00      -2.44      27.81
C       2.29      11.31      13.28
C       9.26      16.06       1.88
C      11.66       3.37      17.04
C       4.68      -1.38      28.44
C       2.23      12.56      12.65
C       9.21      14.81       2.51
C      11.71       2.12      17.66
C       4.74      -0.13      27.81
C       2.83      12.75      11.41
C       9.81      14.62       3.75
C      11.11       1.93      18.91
C       4.14       0.06      26.57
C       1.58      11.09      14.59
C       8.55      16.28       0.57
C      12.36       3.59      15.73
C       5.39      -1.60      29.74
N       5.94      12.22       6.11
N      12.91      15.15       9.05
N       8.01       2.46      24.21
N       1.03      -0.47      21.27
N       7.63       1.55      29.98
N       0.65       0.43      15.50
N       6.32      13.12       0.34
N      13.29      14.25      14.82
N      13.86       0.82      24.22
N       6.89       1.16      21.25
N       0.08      13.86       6.09
N       7.05      13.51       9.07
N       8.43       2.32       0.59
N       1.46       5.01      14.57
N       5.52      12.35      29.73
N      12.49       9.66      15.75
N       0.45      -3.76      24.91
N       7.42       5.75      20.56
N      13.50      18.44       5.40
N       6.52       8.93       9.76
N       0.38      11.07      18.16
N       7.35      10.95      27.32
N      13.57       3.61      12.16
N       6.60       3.73       3.00
O       4.90      11.00       8.96
O      11.87      16.37       6.19
O       9.05       3.68      21.35
O       2.07      -1.69      24.12
O       4.04      13.07       8.91
O      11.01      14.30       6.25
O       9.91       1.61      21.41
O       2.94       0.38      24.07
O       1.68       9.92      15.11
O       8.65      17.46       0.04
O      12.26       4.76      15.20
O       5.29      -2.78      30.27
O       0.91      12.02      15.11
O       7.88      15.35       0.05
O      13.04       2.66      15.21
O       6.07      -0.67      30.26
O       5.01      15.23       6.93
O      11.98      12.14       8.23
O       8.93      -0.56      23.39
O       1.96       2.54      22.08
O       7.20      15.15       6.42
O       0.23      12.22       8.74
O       6.74      -0.47      23.90
O      13.72       2.46      21.58
O       4.59       1.20       3.16
O      11.56       6.14      12.00
O       9.35      13.48      27.15
O       2.38       8.54      18.32
O       6.57       0.60       2.24
O      13.54       6.74      12.92
O       7.38      14.08      28.07
O       0.41       7.94      17.40
