98

Zn      10.11      -2.25      11.06
Zn      -7.16      10.13       4.55
Zn      -7.16       0.53      11.09
Zn       8.50      10.15       4.58
Zn       8.50       0.55      11.12
Zn      -8.76      12.94       4.61
Zn      -8.76      -0.44      13.73
Zn      10.11      11.12       1.95
H     -12.82      11.62      10.39
H     -14.35      12.27      10.53
H      14.17      -0.93       5.29
H      15.70      -1.58       5.14
H      14.18       5.26       1.08
H      15.70       5.37       0.41
H     -12.83       5.42      14.60
H     -14.36       5.32      15.27
C       7.59       1.09      13.87
C      -3.89      -1.83       8.13
C      -3.89       8.24       1.27
C       5.23       2.45      14.40
C       5.24      12.51       7.55
C      -5.13       1.53      14.66
C       6.48       9.15       1.01
C       6.48      -2.40       8.89
C      -6.24       9.59       1.80
C      -5.13      13.09       6.78
C      -4.21       2.01      15.31
C       5.56       8.68       0.36
C       5.56      -2.84       8.21
C      -4.21      13.52       7.46
C      -6.24      -1.83       9.59
C      10.10       3.78       8.91
C      -8.76       6.91       6.77
C      10.10       4.79       8.22
C      -8.76       5.90       7.46
C       7.59      12.51       6.09
C       7.53      -1.84       9.70
C      -6.18      12.53       5.97
C      -6.19       0.98      13.85
C       7.53       9.70       1.83
C      10.10       2.59       9.72
C      -8.76       8.10       5.96
C      -8.76      -3.39      13.79
C      -8.76      14.08       1.88
C      -8.76      -4.59      14.61
C      -8.76      15.27       1.07
C      -8.76      -5.60      15.29
C      -8.76      16.28       0.38
C     -13.27      13.04       9.01
C      14.61      -2.35       6.67
C      14.61       7.07       0.25
C     -13.27       3.62      15.43
C      -3.18      -3.19       8.44
C       4.52      13.88       7.23
C       4.52       1.66      15.56
C      -3.18       9.03       0.11
C       6.58      13.11       7.00
C      -5.23      -2.42       8.68
C      -5.23       8.96       0.91
C       6.57       1.72      14.76
N     -13.38      12.46      10.29
N      14.72      -1.78       5.39
N      14.73       5.66       0.32
N     -13.39       5.02      15.35
O      10.10      -0.41      11.76
O      11.72      10.29       1.20
O      11.72      -2.64      10.01
O     -10.38      13.33       5.66
O       7.35      -0.64      10.08
O      -6.00      11.33       5.59
O      -6.00       1.07      12.59
O       7.35       9.62       3.09
O      10.10      11.10       3.92
O       8.96       2.07       9.96
O      -7.61       8.62       5.72
O      -7.61       2.17      10.11
O       8.96       8.51       5.57
O      -8.77      -2.29      14.42
O      10.11      12.97       1.25
O      10.11      -3.58      12.53
O      -8.77      14.26       3.14
O       8.52      -2.60       9.95
O      -7.18      13.29       5.73
O      -7.18       0.47      14.46
O       8.52      10.21       1.21
O       7.49       1.31      12.63
O      -6.14       9.38       3.05
O      -6.14      -0.59       9.85
O       7.49      11.27       5.83
O     -10.38       0.40      14.47
F      -1.96      -3.35       9.02
F      -3.41      -0.59       8.41
F      -3.41       8.05       2.53
F       4.75       2.63      13.15
F       4.75      11.27       7.26
F       3.30      14.04       6.65
F       3.30       1.06      15.50
F      -1.96       9.63       0.17
