72

Zn       0.10       7.01       5.40
Zn       2.39       8.66       4.20
Zn       4.68       6.80       3.37
Zn       2.18       0.48       7.57
Zn      -0.11      -1.17       8.78
Zn      -2.39       0.70       9.60
H       2.26       3.87       7.37
H      -0.02      -3.05       5.94
H      -2.31      -0.82      12.65
H       0.02       3.62       5.61
H       2.30      10.54       7.04
H       4.59       8.31       0.33
H      -1.33       6.60       7.67
H       0.95      10.83       3.42
H       3.24       5.03       1.89
H       3.61       0.89       5.30
H       1.33      -3.34       9.56
H      -0.96       2.46      11.09
H      -2.16       7.31       6.56
H       0.12       9.51       3.36
H       2.41       5.64       3.06
H       4.44       0.18       6.42
H       2.16      -2.02       9.62
H      -0.13       1.85       9.92
C       2.80       5.94       5.81
C      -1.78       9.55       4.93
C       0.51       6.98       2.23
C      -0.52       1.56       7.16
C       4.06      -2.06       8.05
C       1.77       0.52      10.74
C       3.74       4.82       6.12
C      -0.84      10.38       5.74
C       1.45       7.27       1.12
C      -1.45       2.67       6.85
C       3.12      -2.89       7.24
C       0.83       0.23      11.86
C       3.28       3.82       6.99
C       1.00      -3.35       6.18
C      -1.29      -0.46      12.79
C      -1.00       3.67       5.99
C       1.28      10.84       6.80
C       3.57       7.96       0.19
C      -1.80       4.76       5.59
C       0.49       9.95       6.06
C       2.77       7.76       1.32
C       4.08       2.74       7.38
C       1.79      -2.46       6.92
C      -0.49      -0.27      11.65
O       1.57       5.79       6.09
O       3.85       9.87       4.91
O      -0.72       6.81       1.97
O       0.71       1.70       6.88
O      -1.57      -2.38       8.07
O       3.00       0.68      11.01
O       3.30       7.01       5.29
O      -1.27       8.57       4.25
O       1.01       6.89       3.43
O      -1.02       0.48       7.68
O       3.55      -1.08       8.72
O       1.27       0.60       9.55
O      -1.25       5.66       4.74
O       1.03       8.77       5.70
O       3.32       8.04       2.53
O       3.53       1.84       8.23
O       1.25      -1.28       7.27
O      -1.04      -0.55      10.45
O      -1.31       7.37       7.07
O       0.97       9.93       3.05
O       3.26       5.17       2.85
O       3.59       0.12       5.90
O       1.31      -2.43       9.93
O      -0.98       2.33      10.13
