53

Al       6.57       6.28       7.38
Al       3.24       6.35       7.39
H       4.91       5.42       8.92
H       8.20       7.84       6.57
H       9.46      10.39       7.64
H       7.06      10.40       7.17
H       6.19       2.24       7.61
H       2.88       5.97       0.77
H      10.17       7.78      13.92
H       6.19       6.16      11.45
H       6.06       6.44      13.91
H       6.87       4.99       3.53
H       6.96       4.60       1.08
H       3.85       3.30       7.13
H       9.11       6.45       4.31
H       8.38       6.48       2.72
H      10.64       7.39      10.36
H       4.66       7.90      11.89
C       8.21       6.58       9.82
C       8.28       3.88       7.37
C       4.93       5.97       4.99
C       4.91       8.75       7.39
C       8.32       2.40       7.38
C       4.92      10.25       7.40
C       2.86       1.70       7.26
C      10.39      10.95       7.54
C       6.12      10.94       7.27
C       7.12       1.68       7.52
C       4.86       5.72       3.55
C       8.23       6.79      11.28
C       3.69       5.96       2.77
C       3.76       5.74       1.37
C       9.39       7.25      11.98
C       9.29       7.41      13.38
C       7.05       6.54      12.01
C       6.98       6.70      13.38
C       6.02       5.22       2.90
C       6.07       5.02       1.54
C       4.92       5.29       0.75
C       8.12       7.15      14.09
N       9.21       6.42       3.30
N      10.55       7.56      11.36
O       7.08       6.52       9.23
O       2.72       4.50       7.27
O       3.83       6.25       5.60
O       6.02       8.14       7.28
O       6.06       5.94       5.58
O      10.45       8.19       7.49
O       9.35       6.46       9.22
O       7.16       4.46       7.48
O       4.90       5.76       8.02
O       8.24       6.89       6.77
O       4.05       2.32       7.11
