74

Mg       4.74      10.20       1.03
Mg      10.28       4.63       9.15
Mg       4.04      13.32       9.72
Mg       5.44       0.97       1.24
Mg      10.98       1.51       0.46
Mg       9.58      13.86       8.93
H       2.43      10.41       2.06
H       7.06       9.16       1.20
H      12.60       4.42       8.12
H       7.96       5.67       8.98
H       7.12      12.63       5.56
H       2.37       5.10       0.39
H       7.91       2.20       4.61
H      12.66       9.74       9.78
H       3.21      10.94       4.93
H       6.28       6.30       1.74
H      11.82       3.89       5.25
H       8.74       8.54       8.43
H      13.65      11.73       7.24
H       6.91       3.86       1.83
H       1.37       3.10       2.94
H       8.12      10.98       8.34
C       5.68      12.79       7.17
C       3.80       3.54       0.82
C       9.34       2.04       3.00
C      11.22      11.30       9.35
C       6.10      12.41       5.90
C       3.38       4.86       0.72
C       8.92       2.42       4.28
C      11.64       9.97       9.46
C       5.20      11.75       5.07
C       4.29       5.88       1.04
C       9.82       3.09       5.11
C      10.74       8.95       9.14
C       3.92      11.48       5.55
C       5.57       5.52       1.47
C      11.10       3.36       4.62
C       9.46       9.31       8.71
C       3.57      11.91       6.83
C       5.91       4.17       1.52
C      11.45       2.92       3.35
C       9.11      10.66       8.66
C       6.61      13.46       8.16
C       2.88       2.38       0.56
C       8.41       1.38       2.01
C      12.15      12.46       9.62
C       5.57      11.36       3.65
C       3.91       7.34       0.89
C       9.45       3.47       6.52
C      11.11       7.50       9.29
N       4.43      12.57       7.62
N       5.06       3.19       1.19
N      10.60       2.26       2.55
N       9.97      11.64       8.98
O       6.06      13.85       9.24
O       3.42       1.22       0.59
O       8.96       0.99       0.93
O      11.60      13.61       9.59
O       7.83      13.55       7.88
O       1.65       2.60       0.37
O       7.19       1.29       2.29
O      13.37      12.23       9.80
O       6.65      11.84       3.19
O       2.84       7.59       0.27
O       8.38       2.99       6.98
O      12.19       7.24       9.90
O       4.75      10.61       3.04
O       4.73       8.18       1.37
O      10.27       4.22       7.14
O      10.29       6.65       8.81
O       2.66      10.59       1.13
O       6.83       9.96       0.70
O      12.37       4.24       9.04
O       8.20       4.87       9.48
