54

Al       9.72       4.97       7.43
Al       6.41       4.96       7.42
H       4.74       3.46       6.48
H       8.02       6.56       8.12
H       6.45       6.60       3.37
H       6.90       4.30      11.51
H       9.28       5.05      11.42
H       9.20       4.95      13.89
H       3.04       3.72       3.39
H       3.07       3.74       0.91
H       6.42       2.08       9.36
H       5.00       0.77      10.88
H       9.69       7.70       9.30
H       8.19       8.87      10.86
C       8.14       2.58       7.54
C       8.00       5.08       5.03
C       4.69       7.36       7.35
C       4.83       4.80       9.82
C       8.06       5.15       3.54
C       4.78       4.69      11.31
C       7.18       5.99       2.85
C       7.27       6.05       1.46
C       5.95       4.44      12.03
C       5.89       4.39      13.41
C      10.18       4.86      11.99
C      10.15       4.81      13.38
C       2.36       4.37       2.84
C       2.38       4.40       1.45
C       8.15       5.25       0.71
C       4.70       4.59      14.15
C       8.16       1.08       7.52
C       7.31       0.34       8.40
C       2.40       0.42       6.64
C       6.45       0.99       9.33
C       5.65       0.25      10.18
C       4.69       8.86       7.43
C       5.52       9.60       6.59
C      10.44       9.51       8.36
C       9.63       8.78       9.28
C       8.80       9.44      10.16
Cl       6.54       8.82       5.45
Cl       3.39       1.30       5.54
O       9.22       3.16       7.85
O       6.88       5.32       5.59
O       5.78       6.77       7.62
O       3.75       5.16       9.23
O       3.59       6.80       7.07
O       5.94       4.57       9.25
O       7.04       3.15       7.25
O       9.08       4.76       5.63
O       4.75       4.36       6.85
O       8.06       5.60       8.01
F       6.46       6.95       0.83
F       7.07       4.18      14.07
