186

Zn       7.16       8.92      15.69
Zn       9.97       9.16      15.51
Zn       9.86       8.88      28.71
Zn       7.05       9.14      28.89
H      11.98       7.66      16.78
H      14.48       7.41      16.91
H      14.77      10.72      14.15
H       2.39       7.45      17.28
H       5.11      10.11      14.19
H       2.62      10.25      14.00
H       6.67       4.96      15.33
H       6.42       2.47      15.26
H      10.71       2.11      15.36
H       6.15      15.84      15.59
H      10.36      13.24      15.65
H      10.46      15.73      15.49
H      10.20       8.98      24.45
H       5.93       8.92      24.73
H       6.82       9.00      19.95
H      11.09       8.94      19.67
H      10.42       9.26       1.96
H      10.49       9.19       4.46
H       6.31       8.13       4.49
H      10.42       8.15       8.86
H       6.31       9.29      11.37
H       6.24       9.21       8.87
H       5.03       7.65      27.62
H       2.54       7.41      27.48
H       2.25      10.71      30.26
H      14.64       7.43      27.12
H      11.90      10.07      30.22
H      14.39      10.24      30.41
H      10.33       4.92      29.08
H      10.57       2.44      29.12
H       6.28       2.08      28.97
H      10.90      15.79      28.76
H       6.68      13.21      28.70
H       6.60      15.70      28.83
H      12.77      11.66      13.24
H      11.23      10.75      13.39
H      11.68      11.92      14.62
H       5.43       6.23      17.11
H       5.98       7.65      17.99
H       4.43       6.87      18.44
H      12.11       3.88      15.38
H      11.55       5.39      14.60
H      11.54       5.25      16.35
H       5.41      12.67      14.81
H       5.58      12.50      16.55
H       4.88      14.00      15.87
H       5.32       9.01       1.52
H       5.99       7.49       0.97
H       5.19       7.58       2.56
H      11.40       9.07      11.82
H      10.74       7.54      12.38
H      11.54       7.62      10.78
H       3.96      11.61       0.09
H       5.79      10.72      31.02
H       5.36      11.91      29.79
H      11.59       6.20      27.30
H      11.05       7.62      26.42
H      12.61       6.83      25.98
H       4.89       3.86      29.10
H       5.47       5.46      29.66
H       5.42       5.10      27.94
H      11.62      12.63      29.56
H      11.46      12.45      27.83
H      12.17      13.95      28.50
H      11.51       8.98      23.18
H       5.51       8.99      21.22
C       8.81       6.43      15.48
C       8.80       8.97      18.20
C       8.30      11.63      15.67
C       8.37       8.99      13.00
C       8.19       6.40      28.92
C       8.22       8.94      26.20
C       8.73      11.60      28.71
C       8.35       8.93       0.33
C      12.65       8.31      16.21
C      14.03       8.18      16.28
C      14.83       9.05      15.53
C      14.18      10.03      14.74
C      12.79      10.11      14.73
C      16.24       8.97      15.56
C       0.89       8.91      15.60
C       2.30       8.85      15.64
C       2.97       8.05      16.58
C       4.36       8.02      16.63
C       4.46       9.54      14.85
C       3.08       9.61      14.75
C       8.81       4.93      15.39
C       7.55       4.31      15.34
C       7.41       2.94      15.30
C       8.56       2.12      15.33
C       9.82       2.74      15.35
C       9.98       4.13      15.38
C       8.44       0.71      15.36
C       8.36      17.36      15.43
C       8.30      15.95      15.51
C       7.08      15.26      15.58
C       7.01      13.86      15.65
C       8.22      13.13      15.65
C       9.44      13.83      15.61
C       9.50      15.21      15.53
C       9.24       8.96      23.92
C       6.82       8.93      24.10
C       6.71       8.95      22.73
C       7.86       8.96      21.88
C       7.78       8.97      20.48
C      10.20       8.95      20.30
C      10.31       8.95      21.67
C       9.16       8.95      22.52
C       8.10       8.94      24.70
C       8.92       8.96      19.70
C       8.33       8.80       1.82
C       9.52       9.03       2.53
C       9.56       8.99       3.92
C       8.39       8.69       4.64
C       7.21       8.40       3.92
C       7.15       8.46       2.53
C       8.38       8.67       6.06
C       8.35       8.67       7.28
C       8.34       8.70       8.69
C       9.52       8.43       9.41
C       9.58       8.49      10.81
C       8.40       8.84      11.51
C       7.21       9.06      10.80
C       7.17       9.01       9.41
C       4.37       8.30      28.19
C       2.99       8.17      28.11
C       2.19       9.05      28.87
C       2.84      10.02      29.66
C       4.23      10.10      29.68
C       0.78       8.97      28.84
C      16.13       8.90      28.81
C      14.72       8.84      28.77
C      14.06       8.03      27.83
C      12.66       7.99      27.78
C      12.55       9.51      29.56
C      13.93       9.59      29.66
C       8.19       4.90      28.99
C       9.45       4.28      29.05
C       9.58       2.90      29.07
C       8.43       2.09      29.02
C       7.17       2.71      28.99
C       7.02       4.10      28.99
C       8.55       0.68      28.98
C       8.70      17.33      28.91
C       8.75      15.92      28.83
C       9.97      15.22      28.77
C      10.04      13.82      28.71
C       8.82      13.10      28.71
C       7.60      13.80      28.74
C       7.55      15.18      28.80
C      12.09      11.17      13.94
C       5.08       7.15      17.61
C      11.37       4.69      15.43
C       5.64      13.23      15.73
C       5.84       8.11       1.86
C      10.88       8.16      11.48
C       4.94      11.15      30.47
C      11.94       7.12      26.80
C       5.62       4.66      28.93
C      11.40      13.18      28.64
N      12.04       9.25      15.45
N       5.09       8.77      15.76
N       4.98       9.23      28.95
N      11.93       8.74      28.65
O       7.70       6.96      15.84
O       9.87       7.08      15.21
O       9.87       8.80      17.53
O       7.64       9.16      17.71
O       9.45      11.12      15.88
O       7.24      10.96      15.46
O       7.28       8.74      13.60
O       9.45       9.38      13.55
O       9.30       6.93      28.58
O       7.13       7.05      29.19
O       7.15       8.76      26.87
O       9.38       9.11      26.69
O       7.58      11.09      28.51
O       9.79      10.92      28.92
O       9.74       8.71      30.80
O       7.57       9.36      30.85
O      11.58       8.95      22.20
O       5.44       8.95      22.19
