44

Al       4.75       3.08       8.32
Al       1.39       3.08       8.32
H      -0.28       1.69       7.25
H       3.07       4.47       9.38
H       1.92       2.37      12.17
H       2.14       2.02      14.64
H      -2.16       2.13      14.98
H       4.95       4.03       1.65
H       0.65       4.15       1.99
H       0.86       3.80       4.46
C       3.10       0.69       8.27
C       3.03       3.45       5.93
C      -0.31       5.48       8.36
C      -0.24       2.72      10.70
C      -0.21       2.46      12.17
C       1.04       2.31      12.80
C       1.16       2.12      14.17
C      -0.00       2.07      14.96
C      -1.26       2.19      14.36
C      -1.35       2.38      12.99
C       4.05       3.98       2.27
C       2.79       4.10       1.67
C       1.63       4.04       2.46
C       1.75       3.85       3.83
C       3.00       3.71       4.46
C       4.14       3.78       3.64
C       3.07      -0.81       8.33
C      -0.28       6.97       8.30
N      -0.01       1.90      16.36
N       2.80       4.27       0.27
O       4.25       1.22       8.40
O       1.90       3.50       6.52
O       0.79       4.89       8.54
O      -1.36       2.99      10.15
O      -1.46       4.95       8.23
O       0.89       2.67      10.12
O       1.99       1.28       8.09
O       4.14       3.18       6.48
O      -0.29       2.56       7.69
O       3.07       3.61       8.94
F       4.11       2.49      12.47
F      -1.32       3.68       4.16
F       2.04       7.20       8.43
F       0.75      -1.04       8.20
