165

Mg       8.28       7.29      12.34
Mg      11.68       6.76      11.33
Mg       4.91       7.78      13.44
H       9.14       6.00       9.71
H       5.80      11.20      10.14
H       5.29      14.12       6.90
H       8.15       8.97       3.61
H      10.33       2.16       3.69
H      10.04      10.11       5.37
H       4.17      13.24       0.23
H       6.93      12.32       6.85
H       1.11       1.96       0.04
H       7.39       1.50       0.29
H       8.81       0.67       2.17
H       5.75      11.37       0.23
H      14.95       4.65      13.79
H       9.06       9.79       0.65
H       6.06       9.79       6.97
H       4.94       8.83       1.46
H      14.36       6.63      11.03
H      13.89       8.08      10.92
H      10.26       5.23      12.95
H       9.42       5.17      11.56
H      10.96       9.08       7.43
H      13.05      10.19      14.25
H       6.99       8.75       9.03
H       8.90       9.30      15.01
H       9.92      12.22       2.12
H       4.11       3.67       5.48
H      13.30      10.63       5.15
H       2.32       2.89       3.73
H      11.45      13.34       8.67
H       5.25       0.32       2.21
H      11.39      10.99       8.93
H       5.11      11.21       8.36
H      14.87      11.95       6.55
H       6.74       1.39       8.77
H      12.86      10.20      10.75
H       3.65       2.27       8.96
H       6.30       2.60       2.11
H       6.80       4.47       7.01
H      13.44       7.99      13.63
H      13.81       6.52      13.47
H       6.52       9.25      11.83
H       6.86       9.41      13.42
H       1.55       3.99       1.62
H       3.78       3.82      10.91
H       5.52       3.70       0.01
H      13.84      11.77       2.43
H       3.13      10.37       0.43
H       7.00       5.95       9.00
H       9.41       1.65       5.92
H       8.86       3.25       7.73
H      13.04       4.15       8.23
H       2.37       2.58       6.39
H      10.75       8.13       1.07
H      10.21       9.56       3.04
C       4.99      13.26       3.58
C       7.41      10.61       4.78
C       6.58      11.76       4.78
C       5.93      12.17       3.57
C       6.16      11.44       2.36
C       4.71      13.94       4.81
C      11.47       0.86       2.43
C       5.46      13.58       5.97
C       7.99      10.06       6.03
C      10.67       1.26       1.24
C       6.97      10.28       2.39
C      11.87       1.19       4.83
C       7.59       9.90       3.58
C       4.31      13.62       2.37
C      11.14       1.43       3.66
C      12.18       4.68      13.70
C      13.08       4.08      14.73
C       9.37       9.83       6.18
C       7.01       9.40       1.19
C      11.55       2.01       6.02
C       4.66      12.95       1.16
C       6.36      12.55       5.96
C      11.25       1.83       0.09
C       8.47       1.59       0.25
C       9.27       1.14       1.30
C       5.54      11.90       1.16
C      14.48       4.18      14.65
C       8.15       9.25       0.39
C       7.14       9.68       7.09
C       5.84       8.72       0.84
C       9.04       8.89       8.39
C      10.96       9.66      14.49
C       9.55       8.16       9.60
C      10.63       4.83       9.10
C       9.89       9.26       7.34
C      10.83       8.82      13.26
C      12.15      10.30      14.86
C       7.65       9.09       8.24
C      10.92       3.81       8.09
C       9.82       9.80      15.30
C      10.37      13.17       5.40
C       4.87       2.05       4.29
C       5.68       0.89       4.27
C       9.38      14.21       5.46
C       6.15       1.22       6.68
C      10.62      12.49       4.17
C      12.19      11.92       6.46
C       9.79      12.79       3.04
C       4.35       2.65       3.05
C      13.03      11.54       7.61
C       5.29       2.34       6.68
C      11.69      11.56       4.09
C       4.68       2.74       5.49
C      11.13      12.85       6.57
C      12.48      11.34       5.22
C      15.53      10.13      10.78
C      14.69      10.67       9.70
C       3.02       3.07       2.91
C       5.24       3.25       7.86
C      11.98      10.77       2.87
C      10.85      13.56       7.79
C       8.87      13.80       3.09
C      12.48      11.06       8.82
C      15.25      11.18       8.52
C      14.43      11.58       7.48
C       9.91      14.55       7.84
C      13.29      10.61       9.84
C       4.38       3.08       8.96
C       5.25       2.89       1.99
C       6.15       4.32       7.87
C       3.49       3.90       0.69
C       5.43       4.95      10.09
C       7.10       6.45      15.02
C      16.88      10.20      15.02
C       2.58       3.68       1.74
C       5.71       5.80      11.30
C       4.46       3.95      10.06
C       4.82       3.51       0.83
C      12.57       9.18       0.62
C      13.16      10.98       2.13
C      13.44      10.20       1.01
C       6.26       5.15       8.98
C      10.21       2.20       6.41
C       9.89       3.10       7.43
C      12.25       3.59       7.73
C      12.56       2.70       6.70
C      11.41       8.94       1.37
C      11.11       9.74       2.47
O      12.67       5.41      12.76
O      10.93       4.47      13.84
O      13.60       7.17      10.67
O       9.84       5.84      12.13
O       9.34       5.18       9.15
O      15.14       9.32      11.62
O       5.61      10.53      10.83
O      14.18       7.37      13.83
O       6.72       8.68      12.60
O       5.86       6.65      14.80
O       4.73       6.39      11.88
O      15.96       9.42      14.62
O       6.92       5.90      11.64
O       8.05       6.79      14.24
O       6.81      10.30      14.47
O      10.78       8.10       9.87
O      11.87       8.27      12.75
O      11.51       5.32       9.83
O       9.67       8.68      12.78
O       8.64       7.52      10.27
