172

Cd       4.32       1.60      18.22
Cd       4.11      10.49       0.56
Cd       4.11       1.60       8.83
Cd       4.32      10.49       9.95
H       2.86       1.45       2.50
H       5.57      10.35      16.28
H       5.57       1.45      11.88
H       2.86      10.35       6.89
H       4.25       1.26       4.90
H       4.17      10.15      13.88
H       4.17       1.26      14.29
H       4.25      10.15       4.49
H       6.95       1.95       1.68
H       1.47      10.84      17.10
H       1.47       1.95      11.07
H       6.95      10.84       7.71
H       8.37       0.58       3.05
H       0.05       9.47      15.73
H       0.05       0.58      12.44
H       8.37       9.47       6.34
H       1.87       0.59       4.63
H       6.55       9.48      14.15
H       6.55       0.59      14.02
H       1.87       9.48       4.76
H       7.83       2.35       7.66
H       0.59      11.24      11.12
H       0.59       2.35      17.05
H       7.83      11.24       1.73
H       5.91       2.44       6.08
H       2.51      11.33      12.70
H       2.51       2.44      15.46
H       5.91      11.33       3.31
H       5.02       4.45      16.26
H       3.40      13.34       2.52
H       3.40       4.45       6.87
H       5.02      13.34      11.91
H       3.31       6.65      16.23
H       5.12      15.54       2.55
H       5.12       6.65       6.84
H       3.31      15.54      11.94
H       1.71       3.62      18.74
H       6.71      12.51       0.04
H       6.71       3.62       9.35
H       1.71      12.51       9.43
H       2.34       7.95      18.12
H       6.09      16.84       0.66
H       6.09       7.95       8.73
H       2.34      16.84      10.05
H       0.41       9.47      18.63
H       8.01       0.58       0.15
H       8.01       9.47       9.24
H       0.41       0.58       9.54
H       6.11       6.17      18.30
H       2.31      15.06       0.48
H       2.31       6.17       8.91
H       6.11      15.06       9.87
H       8.01       4.64      17.73
H       0.41      13.53       1.05
H       0.41       4.64       8.34
H       8.01      13.53      10.44
C       3.92       1.52       2.69
C       4.51      10.42      16.09
C       4.51       1.52      12.08
C       3.92      10.42       6.70
C       4.60       1.43       3.88
C       3.83      10.32      14.90
C       3.83       1.43      13.27
C       4.60      10.32       5.51
C       6.03       1.77       2.21
C       2.40      10.66      16.57
C       2.40       1.77      11.60
C       6.03      10.66       7.18
C       7.04       1.54       4.46
C       1.39      10.43      14.32
C       1.39       1.54      13.85
C       7.04      10.43       4.93
C       8.27       1.01       4.05
C       0.16       9.90      14.73
C       0.16       1.01      13.44
C       8.27       9.90       5.34
C       0.92       1.01       4.93
C       7.51       9.90      13.85
C       7.51       1.01      14.32
C       0.92       9.90       4.46
C       0.77       1.52       6.23
C       7.65      10.41      12.55
C       7.65       1.52      15.62
C       0.77      10.41       3.16
C       7.95       2.01       6.64
C       0.47      10.90      12.14
C       0.47       2.01      16.03
C       7.95      10.90       2.75
C       6.87       2.03       5.76
C       1.55      10.92      13.02
C       1.55       2.03      15.15
C       6.87      10.92       3.63
C       1.93       1.57       7.17
C       6.49      10.46      11.61
C       6.49       1.57      16.56
C       1.93      10.46       2.22
C       4.08       4.61      16.77
C       4.35      13.50       2.00
C       4.35       4.61       7.38
C       4.08      13.50      11.39
C       3.25       5.70      16.75
C       5.18      14.59       2.03
C       5.18       5.70       7.36
C       3.25      14.59      11.42
C       2.38       4.13      18.05
C       6.04      13.02       0.72
C       6.04       4.13       8.66
C       2.38      13.02      10.11
C       1.07       6.23      17.87
C       7.36      15.12       0.91
C       7.36       6.23       8.48
C       1.07      15.12      10.30
C       1.31       7.58      18.12
C       7.11      16.47       0.66
C       7.11       7.58       8.73
C       1.31      16.47      10.05
C       0.24       8.42      18.40
C       8.18      17.31       0.38
C       8.18       8.42       9.01
C       0.24      17.31       9.77
C       7.36       7.92      18.45
C       1.06      16.81       0.33
C       1.06       7.92       9.06
C       7.36      16.81       9.72
C       7.13       6.55      18.24
C       1.29      15.44       0.54
C       1.29       6.55       8.85
C       7.13      15.44       9.93
C       8.19       5.70      17.93
C       0.23      14.59       0.85
C       0.23       5.70       8.54
C       8.19      14.59      10.24
C       6.23       8.86      18.74
C       2.19      17.76       0.04
C       2.19       8.86       9.35
C       6.23      17.76       9.43
N       4.82       1.74       1.66
N       3.61      10.63      17.11
N       3.61       1.74      11.05
N       4.82      10.63       7.73
N       5.94       1.58       3.56
N       2.48      10.47      15.22
N       2.48       1.58      12.95
N       5.94      10.47       5.83
N       3.53       3.64      17.59
N       4.90      12.53       1.19
N       4.90       3.64       8.20
N       3.53      12.53      10.58
N       2.17       5.38      17.56
N       6.25      14.27       1.22
N       6.25       5.38       8.17
N       2.17      14.27      10.61
O       3.07       1.13       6.77
O       5.36      10.02      12.01
O       5.36       1.13      16.16
O       3.07      10.02       2.62
O       1.76       2.07       8.33
O       6.67      10.96      10.45
O       6.67       2.07      17.72
O       1.76      10.96       1.06
O       6.47      10.12      18.67
O       1.96       1.22       0.11
O       1.96      10.12       9.28
O       6.47       1.22       9.50
O       5.09       8.38       0.26
O       3.34      17.27      18.51
O       3.34       8.38       9.65
O       5.09      17.27       9.13
