104

Zn     -12.12      12.28       8.29
Zn      -4.49      -0.91       8.27
Zn       3.18      12.36       8.26
Zn       4.81      13.27       5.65
Zn       3.19       3.53      14.68
Zn     -12.10       3.50      14.71
Zn       4.76       0.74      14.70
Zn      -4.66       8.05       2.01
H       9.50       8.24       4.19
H      14.21       1.17       3.60
H       7.46      -1.32      12.13
H       7.12       9.62       3.42
H      -9.16       1.11      12.42
H       9.36      -2.40      10.94
H      -8.06       0.46      10.54
H       1.96      -1.34      12.30
H       0.50       1.34      11.91
H       0.35      -2.30      10.69
H      -1.30       0.27      11.08
H     -12.89       8.42      10.46
H       8.63      11.05       1.47
H      -9.39      13.07       3.42
H      -7.00      11.69       4.19
H      -8.51      10.27       6.14
H       2.82       6.97      12.36
H     -12.62       7.33      12.47
H     -16.04       9.93      13.37
H       1.47       8.49      12.94
H       0.96      10.11      12.40
H      -1.86       9.72       4.80
H      -0.09      10.33       2.35
H       0.02      10.53       6.18
H       1.24      11.63       3.56
H      -4.48       4.82       4.79
H      13.66       2.94       2.37
H      -4.61       2.80       6.20
C      -4.39       0.21       5.55
C       4.71       9.05      10.49
C      -0.98      10.11       4.28
C       4.74      10.25       9.64
C      -0.95      10.00       2.94
C       0.08      10.68       5.09
C       1.12      11.40       4.63
C      -4.56       3.85       4.29
C      13.79       3.86       2.94
C      -4.53       2.66       5.12
C      -4.39       1.40       4.66
C       8.92      10.88       2.51
C       8.36      -0.73      11.94
C     -10.05       0.48      12.52
C       9.39      -1.32      11.10
C      -2.00      -1.35       9.82
C      10.36      -0.62      10.47
C       1.17      -0.69      11.92
C       1.22       0.61      12.27
C       0.15      -1.29      11.07
C      -1.02      -0.72      10.72
C      -2.06       9.44       2.14
C      -9.29      11.99       3.58
C       2.26       1.16      13.17
C     -13.65       5.61      13.36
C      13.80       5.10       2.13
C     -11.14       1.07      13.32
C       2.18      11.93       5.51
C      11.26       9.53       2.08
C      11.41      -1.27       9.66
C     -11.14      11.78       5.54
C       8.10      10.07       3.58
C       9.40       9.32       4.03
C      -7.99      11.24       4.03
C      10.22      10.13       2.95
C       1.82       9.47      12.60
C      -8.80      10.43       5.10
C     -10.10      11.18       4.66
C       3.77       7.47      12.13
C     -13.61       6.89      12.61
C       3.70       8.68      11.32
O     -13.70      13.26       7.62
O      13.75       4.91       0.87
O     -10.98       2.30      13.64
O      14.13      -0.92       4.95
O      -6.25       8.98       2.69
O       6.35       0.34      13.62
O      11.10       9.61       0.82
O       3.69       5.12      13.63
O      -4.64       6.22       2.74
O      -1.89       9.51       0.87
O       3.19       0.38      13.56
O      -1.80      -2.55       9.45
O     -12.58      10.65       9.29
O      -2.99      -0.60       9.50
O       2.02      11.81       6.77
O      -6.15      -0.49       9.24
O       6.35      12.30       4.93
O      11.32      -2.52       9.43
O     -10.96      11.73       6.80
O       2.54       9.39      11.35
O       3.17      12.48       4.91
O      -4.42       0.40       6.81
O       3.63      10.78       9.31
O      -4.66       8.04       0.04
O      -3.07       8.96       2.75
O       2.12       2.39      13.48
O     -12.52       5.12      13.68
