54

Al      -2.69       4.67       7.48
Al       0.63       4.68       7.49
H      -1.03       6.18       8.41
H       2.25       3.09       6.81
H       0.91       2.90      14.11
H       0.58       6.05       0.79
H       3.58       4.27       3.61
H       3.21       4.48       1.20
H      -2.47       5.42      11.39
H      -2.15       5.31      13.83
H       0.37       7.61       5.70
H      -1.17       8.92       4.31
H       3.78       1.94       5.63
H       2.11       0.79       4.25
C       2.35       7.08       7.33
C       2.25       4.50       9.89
C      -1.08       2.27       7.51
C      -0.98       4.86       5.08
C       2.34       4.31      11.37
C      -1.07       5.05       3.60
C       1.42       3.61      12.17
C       1.62       3.49      13.54
C      -0.06       5.58       2.76
C      -0.25       5.66       1.38
C       4.37       4.65       2.97
C       4.18       4.76       1.60
C      -3.19       4.89      12.01
C      -3.01       4.81      13.38
C       2.72       4.09      14.18
C      -1.45       5.26       0.77
C       2.35       8.57       7.29
C       1.41       9.32       6.53
C      -3.32       9.24       8.02
C       0.43       8.69       5.71
C      -0.43       9.43       4.93
C      -1.10       0.78       7.37
C      -0.19       0.02       8.06
C       4.57       0.13       6.54
C       3.69       0.86       5.69
C       2.76       0.21       4.90
Cl       0.02       2.81      11.53
Cl       1.44       6.20       3.36
O       3.45       6.49       7.13
O       1.11       4.39       9.33
O       0.04       2.86       7.34
O      -2.06       4.53       5.66
O      -2.19       2.84       7.76
O       0.15       5.01       5.64
O       1.24       6.50       7.59
O       3.34       4.79       9.29
O      -1.03       5.28       8.05
O       2.29       4.05       6.91
F       0.74       0.58       8.87
F      -2.41       8.58       8.77
