58

Zn       6.74       5.55       5.85
Zn       4.00       5.58       5.93
H       4.34       1.06       7.62
H       3.30       1.31       6.24
H       3.95       9.83       7.33
H       3.28      10.07       5.74
C       5.33       5.57       3.34
C       5.39       5.52      11.09
C       5.36       2.95       5.81
C       5.33       8.17       5.84
C       0.76       5.59       5.90
C       9.97       5.59       5.87
C       5.42       5.50       8.44
C       5.26       5.54       1.90
C       6.66       0.83       6.56
C       5.28       0.83       4.29
C       6.66      10.32       6.53
C       5.37      10.32       4.25
C       5.28       5.50       0.68
C       4.21       0.80       6.57
C       4.12      10.34       6.38
C       5.42       1.38       5.78
C       5.41       9.76       5.72
C       5.42       5.50       9.87
N       1.92       5.59       5.93
N       8.81       5.59       5.85
N       6.71       1.40       8.08
N       3.78       1.38       3.76
N       6.47       9.66       8.01
N       4.11       9.72       3.40
N       8.05       1.40       6.01
N       6.13       1.54       3.16
N       8.14       9.81       6.19
N       6.52       9.69       3.30
O       6.47       5.37       3.85
O       4.23       5.80       3.96
O       6.45       3.55       6.02
O       4.22       3.46       5.65
O       6.38       7.54       5.56
O       4.25       7.68       6.27
O       6.53       5.74       7.86
O       4.29       5.28       7.87
O       7.59       0.92       8.77
O       5.92       2.28       8.39
O       3.80       2.38       3.06
O       2.80       0.78       4.16
O       7.12       8.65       8.23
O       5.62      10.17       8.72
O       3.99      10.20       2.28
O       3.45       8.83       3.90
O       8.32       1.00       4.89
O       8.70       2.17       6.70
O       6.77       2.53       3.49
O       5.99       1.09       2.03
O       8.33       9.11       5.21
O       8.98      10.19       7.00
O       7.52      10.34       3.06
O       6.27       8.55       2.94
