198

H      -2.08      10.04       7.75
H       8.89       7.02       3.23
H       8.89       0.30       7.72
H      -2.08       3.32      12.24
H      -2.82       8.70       6.84
H       9.63       7.35       4.81
H       9.63       1.64       8.63
H      -2.82       2.99      10.66
H       8.56       9.38       8.26
H      -1.75       6.30       3.65
H      -1.75       0.96       7.21
H       8.56       4.04      11.82
H       1.77      -1.01       8.44
H       5.04       2.16      13.17
H       5.04      11.35       7.03
H       1.77       8.18       2.30
H       2.51      -0.19       7.03
H       4.30       3.77      12.95
H       4.30      10.53       8.44
H       2.51       6.57       2.51
H       2.30      -1.97       7.00
H       4.51       3.12      14.61
H       4.51      12.31       8.46
H       2.30       7.22       0.86
H       9.75      14.01       0.52
H      -2.94      15.22       2.32
H      -2.94      -3.67      14.95
H       9.75      -4.88      13.15
H       6.37       6.60      14.69
H       0.44      -0.71       3.75
H       0.44       3.74       0.78
H       6.36      11.05      11.71
H       6.30       8.39      14.53
H       0.51       0.12       2.16
H       0.51       1.95       0.94
H       6.30      10.22      13.31
H       2.96       0.74       3.51
H       3.85       7.38      13.44
H       3.85       9.60      11.96
H       2.96       2.96       2.02
H       4.09      -0.16       4.57
H       2.72       6.05      13.87
H       2.72      10.50      10.90
H       4.09       4.29       1.60
H       2.83      -1.06       3.66
H       3.98       6.56      15.05
H       3.98      11.40      11.81
H       2.83       3.78       0.42
H       2.35       9.43       7.48
H       4.45       7.03       3.90
H       4.45       0.91       7.99
H       2.35       3.31      11.57
H       3.00      10.14       5.95
H       3.81       8.72       3.82
H       3.81       0.20       9.52
H       3.00       1.62      11.65
H       1.75       8.86       5.89
H       5.05       8.28       5.03
H       5.05       1.48       9.57
H       1.75       2.06      10.44
H       8.42      -1.81       7.07
H      -1.61       3.11      14.44
H      -1.61      12.15       8.40
H       8.42       7.23       1.03
H       8.75      -1.27       5.38
H      -1.94       4.88      14.59
H      -1.94      11.61      10.09
H       8.75       5.46       0.88
H       5.42      13.82       5.68
H       1.39      10.37       0.53
H       1.39      -3.48       9.79
H       5.42      -0.03      14.94
Pb       3.40      13.41       2.22
Pb       3.40      -3.07      13.25
Pb      -0.45      12.09       3.42
Pb       7.26      11.81       2.99
Pb       7.26      -1.75      12.05
Pb      -0.45      -1.47      12.48
C      -2.42      13.20       5.37
C       9.23      10.42       1.22
C       9.23      -2.86      10.09
C      -2.42      -0.08      14.25
C       8.26      12.27       7.11
C      -1.46       8.46       1.41
C      -1.46      -1.93       8.36
C       8.26       1.88      14.06
C      -3.30      13.39       6.58
C      10.11       9.38       0.58
C      10.11      -3.05       8.89
C      -3.30       0.96      14.89
C      -0.66      -2.09       7.21
C       7.47       2.88      14.65
C       7.47      12.43       8.26
C      -0.66       7.46       0.82
C      -3.03       9.61       7.41
C       9.84       7.17       3.75
C       9.84       0.73       8.06
C      -3.03       3.17      11.72
C       1.87      -1.02       7.35
C       4.94       3.16      13.60
C       4.94      11.36       8.12
C       1.87       7.18       1.87
C       0.31      14.08       1.24
C       6.49      14.58       1.99
C       6.49      -3.74      14.23
C       0.31      -4.24      13.48
C      -3.00       8.91      14.60
C       9.80       0.26       1.66
C       9.80       1.43       0.87
C      -3.00      10.08      13.81
C       0.38      15.31       0.37
C       6.43      15.85       1.18
C       6.43      -4.97      15.10
C       0.38      -5.51      14.29
C       3.79      -0.29       0.83
C       3.02       9.46      15.42
C       3.02      10.63      14.63
C       3.79       0.88       0.05
C       6.89       7.54      14.90
C      -0.08      -0.55       2.80
C      -0.08       2.80       0.56
C       6.89      10.89      12.67
C       3.51      -0.20       3.64
C       3.30       6.90      14.26
C       3.29      10.54      11.83
C       3.51       3.44       1.21
C       2.57      12.91       4.97
C       4.23      10.68       1.64
C       4.23      -2.57      10.50
C       2.57      -0.34      13.83
C       1.50      12.35       7.19
C       5.31       8.42       1.31
C       5.31      -2.01       8.28
C       1.50       1.92      14.16
C       2.28      13.22       6.41
C       4.53       9.47       0.81
C       4.53      -2.88       9.06
C       2.28       0.87      14.66
C       5.54      -2.33       6.93
C       1.27       3.05      14.97
C       1.27      12.67       8.54
C       5.54       7.29       0.49
C       2.12       9.73       6.45
C       4.69       8.10       4.01
C       4.69       0.61       9.01
C       2.12       2.24      11.46
C       8.10      -1.89       6.03
C      -1.30       4.05      14.91
C      -1.30      12.23       9.44
C       8.10       6.29       0.56
S       8.39      10.73       6.24
S      -1.58       8.68       3.17
S      -1.58      -0.39       9.23
S       8.39       1.66      12.30
S       0.27      -0.73       6.54
S       6.54       4.02      13.64
S       6.54      11.07       8.93
S       0.27       6.32       1.83
S      -3.77       7.41      14.04
S      10.58       0.20       3.25
S      10.58       2.93       1.43
S      -3.77      10.14      12.21
S       4.76      -0.37       2.33
S       2.05       8.04      14.92
S       2.05      10.71      13.14
S       4.76       2.30       0.55
S       0.75      10.92       6.44
S       6.06       8.57       2.92
S       6.06      -0.58       9.03
S       0.75       1.78      12.55
S       6.42      -1.24       5.84
S       0.38       4.47      14.38
S       0.38      11.58       9.63
S       6.42       5.87       1.09
O      -2.93      13.10       4.22
O       9.74      11.45       1.75
O       9.74      -2.76      11.25
O      -2.93      -1.11      13.72
O       1.14      13.13       1.08
O       5.67      14.36       2.92
O       5.67      -2.79      14.39
O       1.14      -4.02      12.55
O      -0.61      14.09       2.13
O       7.42      13.76       1.63
O       7.42      -3.75      13.34
O      -0.61      -3.42      13.84
O       3.70      12.44       4.68
O       3.11      10.77       2.19
O       3.11      -2.10      10.79
O       3.70      -0.43      13.28
O       1.68      13.24       4.10
O       5.12      11.62       1.67
O       5.12      -2.90      11.37
O       1.68      -1.28      13.80
O      -1.17      13.09       5.59
O       7.97      10.18       1.24
O       7.97      -2.75       9.88
O      -1.17       0.16      14.23
