90

Zn       5.57       5.55       7.67
Zn       5.64       8.33       7.69
H       6.67       3.44       5.96
H       4.30       3.47       9.35
H       8.48       6.06       9.88
H       2.45       6.59      10.28
H       9.59       5.69      12.04
H       1.11       5.96      12.26
H       4.16       5.15      14.32
H       5.54       4.97       0.86
H       4.48       5.11      11.85
H       5.61       4.93       3.35
H       6.33       8.97      12.01
H       4.76       9.12       3.46
H       6.08       9.00      14.48
H       4.65       9.18       0.97
H       6.50      12.99       9.65
H       4.71      12.94       5.71
H       6.52      10.47       9.56
H       4.81      10.43       5.80
H      10.68       8.02       4.64
H       8.54       7.52       3.66
H       8.08       6.63       5.12
H       9.33       5.96       4.05
H       2.58       8.02       5.66
H       2.34       6.93       3.55
H       0.85       6.16       4.14
H       2.42       5.70       4.85
H       7.17       1.52       4.95
H       8.51      13.50       4.94
H       7.73      12.91       6.40
H       8.77       0.34       6.51
H       3.73       1.55      10.35
H       2.69      13.48      10.41
H       3.49      12.90       8.95
H       2.18       0.28       8.82
C       5.63       6.98      10.30
C       5.33       6.99       5.05
C       5.44       7.03      11.78
C       5.21       7.02       3.56
C       5.86       8.14      12.53
C       4.93       8.22       2.88
C       5.70       8.16      13.91
C       4.88       8.25       1.49
C       5.12       7.07      14.59
C       5.10       7.08       0.73
C       6.12      12.46       8.77
C       5.12      12.43       6.59
C       6.13      11.07       8.74
C       5.16      11.05       6.63
C       5.60      13.17       7.68
C       6.17       1.44       6.66
C       4.77       1.45       8.66
C       6.14       2.84       6.70
C       4.82       2.85       8.61
C       5.47       0.72       7.67
C       8.18       6.85       7.49
C       3.02       7.01       7.83
C       9.56       6.19       9.96
C       1.37       6.47      10.19
C      10.19       5.98      11.17
C       0.62       6.12      11.30
C       0.76       6.70       8.94
C      10.30       6.56       8.80
C       9.68       6.85       7.54
C       1.51       7.04       7.78
C      10.44       7.25       6.44
C       0.91       7.30       6.57
C       4.66       5.98      13.82
C       5.35       5.88       1.42
C       4.82       5.95      12.44
C       5.40       5.85       2.81
C       8.92       6.90       4.48
C       1.83       6.55       4.44
C       8.08      13.81       5.90
C       3.10      13.79       9.44
N       5.66      10.38       7.68
N       5.49       3.51       7.66
N       9.93       7.65       5.22
N       1.66       7.64       5.41
N       6.87       0.82       5.62
N       4.06       0.85       9.70
O       5.41       5.87       9.72
O       5.65       5.88       5.59
O       6.01       8.06       9.72
O       5.10       8.08       5.68
O       7.59       5.74       7.70
O       3.55       5.89       7.56
O       7.60       7.96       7.28
O       3.63       8.10       8.10
