126

Mg       1.66      16.98       9.12
Mg       3.95      15.34       8.33
Mg      -0.63      15.48      10.15
Mg      -0.21      -1.02      18.60
Mg       4.38       0.69      19.19
Mg       2.09       0.34      17.41
H      -0.86      15.16       4.60
H       1.43      12.34      12.17
H       3.72      20.31      10.83
H       0.65      15.33       2.59
H       2.94      10.51      13.03
H      -1.65      21.97      11.98
H       3.84      16.70       5.13
H      -0.74      12.03      10.57
H       1.54      19.08      11.90
H       3.57      15.81       0.18
H      -1.01       8.19      13.82
H       1.28      23.81      13.60
H       2.89      -0.07      25.85
H       0.60       6.48      14.74
H       5.18      -6.41      14.62
H       1.13      18.06       0.64
H       3.42       7.45      11.64
H      -1.17      22.29      15.33
H      -0.51      18.03       2.57
H       1.78       9.15      10.70
H      -2.80      20.62      14.33
H       0.80       1.28      24.95
H      -1.49       5.03      14.02
H       3.09      -6.30      16.23
H       2.33       1.17      22.96
H       0.04       3.37      15.11
H       4.62      -4.53      17.13
H      -2.43      -0.11      22.46
H       2.15       3.58      16.47
H      -0.14      -3.46      16.27
C      -0.30      15.63       7.11
C       1.99      14.28      10.51
C       4.28      17.90       9.98
C       0.65      15.79       5.99
C       2.94      13.22      10.93
C      -1.65      18.79      10.68
C       0.18      15.48       4.70
C       2.47      12.26      11.84
C      -2.12      20.06      11.06
C       0.99      15.58       3.59
C       3.28      11.25      12.31
C      -1.30      20.97      11.70
C       2.31      16.06       3.75
C      -2.27      11.15      11.82
C       0.02      20.60      12.03
C       2.81      16.36       5.02
C      -1.77      12.10      10.92
C       0.52      19.34      11.66
C       2.01      16.21       6.17
C       4.30      13.17      10.48
C      -0.28      18.42      10.96
C       4.90      16.91       1.49
C       0.31       8.77      12.21
C       2.61      22.13      13.90
C       4.54      16.30       0.26
C      -0.04       8.01      13.35
C       2.25      23.49      13.99
C       3.13       0.40      26.80
C       0.84       7.07      13.85
C       5.42      -7.47      14.55
C      -2.48       1.04      26.94
C       2.09       6.88      13.23
C      -0.19      -7.91      15.03
C       0.15      17.59       0.55
C       2.44       7.61      12.09
C      -2.15      22.59      14.96
C      -0.75      17.57       1.61
C       1.54       8.54      11.57
C      -3.04      21.68      14.41
C      -0.91       0.59      23.80
C       3.67       4.39      15.19
C       1.38      -4.97      16.21
C       0.44       0.95      23.97
C      -1.85       4.35      14.79
C       2.74      -5.30      16.44
C       1.28       0.89      22.87
C      -1.01       3.43      15.39
C       3.57      -4.31      16.93
C       0.82       0.48      21.59
C      -1.47       2.52      16.39
C       3.11      -3.00      17.22
C       1.77       0.53      20.46
C      -0.52       1.53      16.91
C       4.06      -2.05      17.82
C      -0.55       0.10      21.43
C       4.03       2.58      16.80
C       1.74      -2.67      16.97
C      -1.38       0.16      22.56
C       3.20       3.53      16.18
C       0.91      -3.68      16.46
N       3.06      16.17       2.56
N      -1.53      10.07      12.32
N       0.77      21.57      12.72
N       4.12      16.86       2.66
N      -0.46       9.81      11.67
N       1.83      21.14      13.27
N      -1.50       1.07      25.94
N       3.08       5.99      13.71
N       0.79      -7.06      15.56
N      -1.89       0.61      24.82
N       2.69       5.26      14.66
N       0.40      -5.86      15.72
O      -1.49      15.23       6.91
O       0.80      14.30      10.95
O       3.09      18.27       9.74
O       0.11      15.90       8.31
O       2.40      15.18       9.68
O      -2.18      16.73       9.62
O       2.56      16.47       7.36
O      -2.02      14.08       9.65
O       0.27      17.26      10.58
O       2.96       0.94      20.62
O       0.67       1.45      16.48
O      -1.62      -2.39      18.11
O       1.36       0.13      19.30
O      -0.93       0.71      17.84
O       3.65      -0.84      18.07
O      -1.10      -0.31      20.27
O       3.48       1.78      17.73
O       1.19      -1.47      17.20
