228

Sn      -1.24      13.34       7.12
Sn      -1.94       6.25      10.76
Sn       1.88       8.81       1.02
Sn       1.18      15.52       5.34
Sn       5.00       5.80       7.99
Sn       4.30       6.19       0.03
Sn       4.35      -4.03       9.02
Sn       5.06       3.07       5.37
Sn       1.23       0.51      15.12
Sn       1.94      -6.20      10.79
Sn      -1.89       3.52       8.14
Sn      -1.18       3.13      16.11
H      -4.13      10.63      11.27
H       4.08       9.32      11.60
H       2.48       8.67      10.13
H       1.29       8.87       7.98
H       2.32      10.16       6.09
H       4.52      11.31       6.48
H       0.46       6.51       9.58
H       0.43       7.52      11.07
H      -0.41       8.09       9.60
H      -4.04       6.29      12.45
H      -2.56       5.69      13.30
H      -3.47       4.60      12.20
H       0.34      11.70       5.70
H      -0.28      10.84       7.16
H      -1.32      11.04       5.71
H      -0.40      -3.89       7.03
H       0.99      -2.75       6.94
H      -2.63      14.96       5.48
H      -1.01      13.76       1.30
H      -2.15      14.70       2.26
H       5.60      13.75       3.56
H       4.42      11.79       4.46
H       5.45       9.51       4.28
H      -1.72       9.27       3.09
H       3.58      14.35       5.71
H       3.55      15.14       4.09
H       2.70      13.59       4.33
H       2.20      -1.68       4.47
H       3.68      -0.64       4.56
H       2.77      -1.05       6.05
H       3.46       8.41       3.15
H       2.84      10.10       3.16
H       1.80       8.74       3.72
H      -3.52      -1.28      15.99
H      -2.13      -1.93      15.05
H       0.49       6.58       0.44
H       2.11       3.56       3.57
H       0.96       3.92       2.27
H      -0.64       5.52       2.45
H      -1.82       7.28       3.70
H      -0.79       8.27       5.76
H       1.40       7.36       6.56
H       6.70       7.08       0.85
H       6.67       5.28       0.97
H       5.83       6.27       2.20
H      -0.92      -4.61      15.36
H       0.56      -5.05      14.41
H      -0.36      -3.55      14.02
H      -2.77       7.84       7.28
H       5.96       7.01       5.81
H       4.92       8.17       6.71
H       2.72       5.18       9.25
H       4.11       4.69      10.28
H       3.61       6.41      10.22
H       7.25      -1.31       4.87
H      -0.97      -0.01       4.53
H       0.64       0.64       6.01
H       1.82       0.45       8.16
H       0.79      -0.85      10.04
H      -1.40      -1.99       9.65
H       2.66       2.81       6.56
H       2.68       1.80       5.06
H       3.53       1.23       6.53
H       7.15       3.03       3.69
H       5.68       3.63       2.83
H       6.59       4.72       3.93
H       2.77      -2.38      10.43
H       3.40      -1.53       8.97
H       4.44      -1.73      10.43
H       3.51      13.20       9.11
H       2.12      12.07       9.20
H       5.74      -5.65      10.66
H       4.13      -4.45      14.84
H       5.27      -5.38      13.88
H      -2.48      -4.43      12.58
H      -1.30      -2.47      11.67
H      -2.33      -0.19      11.85
H       4.83       0.04      13.04
H      -0.46      -5.04      10.43
H      -0.44      -5.83      12.05
H       0.41      -4.27      11.81
H       0.91      11.00      11.67
H      -0.56       9.95      11.58
H       0.35      10.36      10.08
H      -0.35       0.91      12.99
H       0.28      -0.78      12.97
H       1.32       0.58      12.42
H       6.64      10.60       0.15
H       5.25      11.25       1.08
H       2.62       2.74      15.70
H       1.01       5.76      12.57
H       2.15       5.39      13.86
H       3.76       3.79      13.69
H       4.94       2.03      12.44
H       3.91       1.05      10.38
H       1.72       1.96       9.58
H      -3.58       2.23      15.29
H      -3.56       4.04      15.16
H      -2.71       3.05      13.93
H       4.03      13.92       0.78
H       2.56      14.36       1.73
H       3.47      12.86       2.12
H       5.89       1.48       8.85
H      -2.85       2.31      10.33
H      -1.80       1.15       9.43
H       0.39       4.14       6.88
H      -0.99       4.63       5.85
H      -0.49       2.91       5.92
C      -3.39       8.66      10.93
C      -4.52       9.68      10.88
C       4.18       9.84       9.53
C       2.94       9.23       9.32
C       2.27       9.34       8.10
C       2.84      10.08       7.05
C       4.06      10.70       7.26
C       4.74      10.59       8.48
C      -3.32      11.34       8.60
C      -0.13       7.21      10.19
C      -3.16       5.63      12.39
C      -0.54      11.50       6.32
C       0.58      -3.69       6.57
C      -0.27      14.45       3.17
C      -1.40      13.90       2.31
C      -2.05      12.65       2.85
C       6.06      12.77       3.48
C       5.39      11.66       3.99
C       5.96      10.38       3.88
C      -2.18      10.25       3.23
C      -1.49      11.36       2.72
C      -0.20      11.10       2.02
C       2.99      14.53       4.80
C       3.08      -1.40       5.07
C       2.58       9.04       3.02
C      -2.55      -1.78      16.05
C       2.85       4.84       2.04
C       1.72       4.37       2.94
C       1.07       5.46       3.75
C      -0.18       5.95       3.34
C      -0.85       6.94       4.05
C      -0.28       7.48       5.20
C       0.94       6.99       5.64
C       1.63       5.99       4.93
C       2.92       5.51       5.52
C       6.11       6.21       1.15
C      -0.05      -4.23      14.81
C       5.71       7.41       6.79
C       3.69       5.48       9.65
C       6.50       0.66       5.21
C       7.64      -0.36       5.26
C      -1.07      -0.52       6.60
C       0.18       0.08       6.82
C       0.85      -0.03       8.04
C       0.28      -0.76       9.08
C      -0.94      -1.39       8.88
C      -1.63      -1.27       7.66
C       6.44      -2.02       7.53
C       3.24       2.11       5.95
C       6.28       3.69       3.75
C       3.65      -2.18       9.82
C       2.54      13.01       9.57
C       3.38      -5.13      12.97
C       4.52      -4.58      13.82
C       5.17      -3.34      13.29
C      -2.95      -3.45      12.65
C      -2.28      -2.34      12.14
C      -2.84      -1.07      12.26
C       5.29      -0.93      12.90
C       4.61      -2.05      13.41
C       3.31      -1.78      14.12
C       0.12      -5.22      11.33
C       0.04      10.71      11.07
C       0.53       0.28      13.12
C       5.66      11.09       0.08
C       0.26       4.48      14.10
C       1.40       4.95      13.19
C       2.05       3.86      12.38
C       3.29       3.37      12.80
C       3.97       2.37      12.09
C       3.40       1.83      10.93
C       2.18       2.33      10.49
C       1.49       3.32      11.20
C       0.20       3.80      10.62
C      -3.00       3.11      14.99
C       3.16      13.54       1.32
C      -2.59       1.90       9.34
C      -0.58       3.84       6.49
O      -3.39       7.74      10.01
O      -2.56       8.67      11.86
O      -2.47      10.97       9.48
O      -3.16      12.32       7.81
O       2.50      -5.18       9.09
O      -0.27      14.12       4.43
O       0.57      15.25       2.70
O       0.65      12.04       1.90
O      -0.04       9.92       1.55
O      -0.62       1.15      16.07
O       2.85       6.10       1.70
O       3.68       4.03       1.58
O       3.77       4.94       4.76
O       3.08       5.71       6.77
O       5.62       4.03       7.11
O       6.51       1.58       6.13
O       5.67       0.65       4.28
O       5.58      -1.65       6.66
O       6.27      -3.01       8.33
O       0.61      14.49       7.04
O       3.39      -4.80      11.70
O       2.55      -5.93      13.44
O       2.46      -2.72      14.24
O       3.15      -0.60      14.58
O       3.73       8.17       0.06
O       0.27       3.22      14.44
O      -0.57       5.29      14.55
O      -0.66       4.38      11.37
O       0.03       3.61       9.37
O      -2.51       5.29       9.03
