56

Al      -2.63       4.54       8.76
Al       0.72       4.54       8.75
H      -0.94       5.88       9.91
H       2.36       3.00       7.96
H       3.53       5.05       4.97
H       3.20       5.28       2.52
H       0.79       5.04       1.97
H       0.61       4.03      15.53
H      -2.12       4.00      12.56
H      -1.81       3.76      15.02
H       0.36       7.39       6.97
H      -1.30       8.68       5.68
H       3.79       1.78       6.91
H       2.06       0.59       5.64
H       0.82       0.46       9.61
H      -2.44       8.55       9.53
C       2.43       6.94       8.58
C       2.36       4.33      11.17
C      -1.00       2.13       8.69
C      -0.93       4.75       6.35
C      -1.03       4.93       4.87
C       4.39       5.06       4.30
C       4.20       5.19       2.93
C      -1.38       5.18       2.06
C      -0.09       5.06       2.61
C       0.06       4.94       3.99
C      -1.56       5.27       0.66
C       2.94       3.78      16.86
C       2.78       3.88      15.46
C       1.49       4.01      14.89
C       1.36       4.14      13.52
C       2.45       4.15      12.65
C      -2.98       4.00      13.23
C      -2.80       3.86      14.60
C       2.42       8.43       8.45
C       1.39       9.14       7.75
C      -3.24       9.11       9.05
C       0.39       8.48       6.98
C      -0.54       9.20       6.26
C      -0.99       0.65       8.50
C       0.03      -0.07       9.09
C       4.68      -0.01       7.75
C       3.73       0.69       6.96
C       2.77       0.02       6.24
O      -3.14       6.36       8.52
O       1.22       4.27      10.61
O       0.13       2.72       8.62
O      -2.03       4.49       6.94
O      -2.12       2.69       8.92
O       0.21       4.84       6.90
O       1.32       6.36       8.80
O       3.47       4.56      10.58
O      -0.95       5.10       9.34
O       2.39       3.94       8.18
F       1.32       4.81       4.45
F       0.09       4.29      13.05
