320

Cd      16.37      14.94      13.83
Cd       7.13      19.17      15.87
Cd      11.39      13.71       5.97
Cd      20.63       9.48       3.94
Cd      16.21      18.84      13.44
Cd       6.96      15.26      16.25
Cd      11.55       9.80       6.36
Cd      20.80      13.39       3.55
Cd      17.50      17.11      10.74
Cd       8.27      17.00      18.95
Cd      10.25      11.54       9.07
Cd      19.49      11.65       0.85
H      19.27      17.63       8.68
H       9.99       5.55       1.21
H       8.49      11.02      11.13
H      17.77      23.10      18.59
H      19.19      18.71       9.79
H       9.92       4.47       0.10
H       8.57       9.93      10.01
H      17.84      24.18      19.70
H      16.81      17.98      15.74
H       7.56      16.13      13.96
H      10.95      10.67       4.06
H      20.20      12.52       5.84
H      18.23      18.67      15.59
H       8.98      15.44      14.10
H       9.53       9.98       4.21
H      18.78      13.21       5.70
H      16.29      16.79       8.32
H       7.04       6.40       1.58
H      11.47      11.86      11.48
H      20.71      22.25      18.22
H      15.90      18.30       8.28
H       6.66       4.89       1.65
H      11.85      10.35      11.52
H      21.10      23.76      18.16
H      21.15      15.80      14.72
H      11.91      18.30      14.97
H       6.61      12.84       5.08
H      15.85      10.34       4.83
H      23.48      19.10      13.21
H      14.24      15.02      16.49
H       4.28       9.55       6.59
H      13.52      13.63       3.31
H      19.22      19.00      12.58
H       9.98      15.10      17.11
H       8.54       9.64       7.22
H      17.78      13.55       2.70
H      23.20      20.04      11.02
H      13.96      14.09      18.68
H       4.56       8.61       8.78
H      13.79      14.56       1.12
H      23.11      22.05       9.58
H      13.85       1.16       0.32
H       4.65       6.60      10.22
H      13.91      27.49      19.48
H      12.61       6.31       8.76
H      21.84      16.89       1.15
H      15.15      22.34      11.04
H       5.92      11.76      18.66
H       9.08       7.61      10.86
H      18.35      26.49      18.86
H      18.68      21.04       8.94
H       9.41       2.16       0.95
H      18.49      23.39      12.39
H       9.27      10.71      17.32
H       9.27       5.25       7.41
H      18.49      17.94       2.48
H      19.58      21.26      13.01
H      10.35      12.84      16.69
H       8.18       7.38       6.79
H      17.41      15.81       3.11
H      14.90      13.95       8.65
H       5.64       9.23       1.24
H      12.86      14.70      11.15
H      22.12      19.42      18.56
H      13.92       9.94       9.80
H      23.16      13.24       0.10
H      13.83      18.71      10.00
H       4.60      15.40      19.70
H      16.88      12.17      12.03
H       7.66      21.94      17.67
H      10.87      16.48       7.77
H      20.10       6.71       2.13
H      13.66       8.97      11.76
H      22.92      25.14      17.95
H      14.10      19.68       8.04
H       4.84       3.51       1.85
H      22.09      24.59      12.76
H      12.87       9.52      16.96
H       5.67       4.06       7.04
H      14.89      19.13       2.85
H      22.60      22.46      13.95
H      13.37      11.65      15.77
H       5.16       6.19       5.86
H      14.39      16.99       4.03
H       8.24      23.58      14.33
H      17.49      10.53      15.37
H      19.52       5.07       5.47
H      10.27      18.12       4.44
H      18.26       8.04      13.41
H       9.03      26.07      16.28
H       9.50      20.61       6.39
H      18.73       2.58       3.52
H      17.80      10.12      12.16
H       8.57      23.99      17.54
H       9.96      18.53       7.65
H      19.19       4.65       2.27
C      20.04      17.34      13.68
C      10.80      16.76      16.01
C       7.72      11.31       6.12
C      16.96      11.88       3.79
C      21.20      16.76      14.20
C      11.96      17.35      15.49
C       6.56      11.89       5.60
C      15.80      11.30       4.31
C      22.44      17.39      14.01
C      13.20      16.72      15.69
C       5.32      11.25       5.80
C      14.56      11.93       4.11
C      22.51      18.61      13.32
C      13.27      15.50      16.38
C       5.25      10.04       6.48
C      14.49      13.15       3.42
C      21.35      19.22      12.83
C      12.11      14.89      16.86
C       6.41       9.42       6.97
C      15.65      13.76       2.94
C      20.12      18.57      13.02
C      10.88      15.54      16.67
C       7.64      10.08       6.79
C      16.88      13.11       3.13
C      18.73      16.66      13.76
C       9.48      17.45      15.93
C       9.03      11.99       6.04
C      18.27      11.20       3.87
C       5.20      16.77      14.54
C      14.45      17.34      15.16
C      22.56      11.87       5.27
C      13.31      11.31       4.64
C      21.37      20.50      12.09
C      12.13      13.62      17.61
C       6.39       8.15       7.71
C      15.63      15.03       2.19
C      22.39      20.76      11.14
C      13.16      13.36      18.57
C       5.37       7.89       8.67
C      14.60      15.28       1.24
C      22.34      21.87      10.33
C      13.11      12.25      19.37
C       5.42       6.78       9.47
C      14.65      16.40       0.43
C      21.27      22.80      10.45
C      12.05      11.32      19.26
C       6.49       5.85       9.36
C      15.71      17.33       0.54
C      11.89       6.17       9.57
C      21.12      17.03       0.34
C      15.87      22.48      10.23
C       6.64      11.62      19.46
C      10.83       7.06       9.71
C      20.07      16.13       0.21
C      16.92      21.59      10.10
C       7.69      12.52      19.60
C       9.90       6.90      10.77
C      19.17      27.20      18.95
C      17.86      21.75       9.04
C       8.59       1.44       0.85
C      19.24      23.55      11.62
C      10.02      10.55      18.10
C       8.52       5.10       8.19
C      17.74      18.09       1.70
C      20.28      22.59      11.46
C      11.05      11.52      18.24
C       7.48       6.05       8.34
C      16.71      17.13       1.56
C      20.35      21.43      12.26
C      11.12      12.68      17.45
C       7.41       7.22       7.54
C      16.64      15.97       2.36
C      10.67       8.17       8.72
C      19.92      15.02       1.19
C      17.08      20.48      11.08
C       7.84      13.62      18.61
C      15.99      13.17      10.34
C       6.77      20.94      19.35
C      11.77      15.48       9.46
C      20.99       7.71       0.45
C      15.05      13.10       9.31
C       5.80      10.08       0.59
C      12.70      15.55      10.49
C      21.96      18.57      19.22
C      14.28      11.95       9.15
C      23.51      11.23       0.74
C      13.48      16.70      10.65
C       4.25      17.41      19.06
C      14.50      10.85       9.99
C      23.76      23.26      19.71
C      13.26      17.80       9.82
C       4.00       5.39       0.09
C      15.45      10.88      11.01
C      24.72      23.22      18.69
C      12.30      17.76       8.79
C       3.04       5.42       1.12
C      16.18      12.07      11.20
C       6.96      22.03      18.50
C      11.58      16.58       8.60
C      20.80       6.61       1.30
C      16.74      14.44      10.55
C       7.51      19.67      19.15
C      11.02      14.21       9.26
C      20.25       8.98       0.66
C      13.20      11.92       8.13
C      22.43      11.26       1.77
C      14.56      16.72      11.67
C       5.33      17.39      18.03
C      15.69       9.68      11.85
C      24.95      24.42      17.85
C      12.07      18.96       7.95
C       2.81       4.22       1.95
C      14.67       8.78      12.12
C      23.93      25.33      17.59
C      13.09      19.87       7.68
C       3.83       3.32       2.21
C      14.90       7.59      12.84
C      24.15      26.52      16.86
C      12.86      21.06       6.96
C       3.61       2.13       2.94
C      23.11      24.37      13.11
C      13.88       9.74      16.60
C       4.65       4.27       6.69
C      13.88      18.91       3.20
C      23.38      23.19      13.77
C      14.15      10.92      15.95
C       4.38       5.45       6.04
C      13.61      17.73       3.85
C      24.70      22.90      14.20
C      15.47      11.21      15.50
C       3.06       5.75       5.60
C      12.29      17.44       4.30
C      25.71      23.81      13.98
C      16.48      10.30      15.72
C       2.04       4.83       5.82
C      11.28      18.35       4.08
C      25.47      25.03      13.30
C      16.24       9.08      16.40
C       2.29       3.62       6.50
C      11.52      19.57       3.40
C      17.25       8.25      13.05
C      26.51      25.86      16.65
C      10.51      20.40       6.76
C       1.25       2.79       3.15
C      16.99       9.41      12.35
C      26.25      24.70      17.35
C      10.77      19.24       7.45
C       1.51       3.95       2.46
C      25.01      21.59      14.85
C      15.78      12.52      14.85
C       2.75       7.06       4.95
C      11.98      16.13       4.95
O      18.54      15.65      14.49
O       9.30      18.45      15.20
O       9.22      12.99       5.31
O      18.46      10.20       4.60
O      17.76      17.14      13.03
O       8.52      16.96      16.66
O      10.00      11.50       6.78
O      19.24      11.69       3.14
O       5.08      15.67      15.17
O      14.33      18.44      14.53
O      22.68      12.98       4.63
O      13.43      10.21       5.28
O       6.33      17.35      14.33
O      15.57      16.76      15.37
O      21.43      11.30       5.47
O      12.18      11.89       4.44
O       9.93       9.16       9.02
O      19.17      14.03       0.90
O      17.83      19.49      10.79
O       8.59      14.62      18.90
O      11.30       8.04       7.61
O      20.54      15.15       2.30
O      16.46      20.61      12.20
O       7.21      13.49      17.50
O      16.71      15.31       9.60
O       7.45       7.88       0.29
O      11.04      13.34      10.20
O      20.31      20.77      19.51
O      17.35      14.67      11.63
O       8.12      19.43      18.06
O      10.41      13.97       8.17
O      19.64       9.21       1.75
O      13.13      12.85       7.29
O      22.36      10.33       2.61
O      14.63      15.80      12.52
O       5.40      18.31      17.19
O      12.36      10.93       8.24
O      21.59      12.25       1.67
O      15.40      17.71      11.57
O       6.17      16.39      18.13
O       7.70      21.39      15.32
O      16.94      12.72      14.37
O      20.06       7.26       4.48
O      10.81      15.93       5.43
O      24.10      20.69      14.91
O      14.87      13.42      14.81
O       3.66       7.96       4.90
O      12.89      15.22       5.00
O      19.47      17.78       9.62
O      10.20       5.40       0.27
O       8.29      10.87      10.18
O      17.56      23.25      19.53
O      17.27      18.85      15.57
O       8.02      15.26      14.12
O      10.49       9.79       4.23
O      19.74      13.39       5.68
O      16.66      17.70       8.36
O       7.42       5.49       1.55
O      11.09      10.95      11.44
O      20.34      23.16      18.25
