158

Zn      -4.50       4.66       6.90
Zn      12.07       1.93       6.95
Zn      -4.58       2.84       9.51
Zn      -3.05       1.80       6.91
Zn       4.62       6.21       0.66
Zn       4.49      -2.56      13.17
Zn       6.11       9.10       0.65
Zn       2.99       8.96       0.71
H      -2.27       5.69       3.52
H       3.67       5.44       3.76
H      -4.56       5.84      12.32
H       4.67      -8.16      13.82
H       3.68      -5.00       9.62
H       0.47       0.26      14.70
H      -0.90       1.32      14.38
H       1.69      -3.37      10.74
H       0.75      -3.41       9.35
H       0.12       0.28       7.23
H       1.63       0.31       7.88
H      -5.34       9.00       8.05
H      -1.40      -2.09       8.90
H      -0.88      -1.87       7.35
H      10.38      -2.48       4.86
H      11.09      -1.09       5.63
H       8.89      12.12       3.05
H       7.55      11.17       3.05
H      -0.37      -1.33       5.06
H      17.16      -2.76       5.30
H      16.21      -0.23       2.43
H      16.31       0.46       3.92
H      -3.55       9.05       8.15
H       5.52      -0.66       8.60
H       5.69      -1.49      10.09
H       7.32       2.70       9.38
H       8.72       2.64       8.42
H       9.27       4.22       0.58
H       8.06       3.14       0.27
H       8.83       1.08       3.34
H       9.50       1.78       4.72
H       5.05       3.49       6.48
H       5.40       4.42       5.08
H      -1.78       1.66      12.24
H       2.50      -1.15       9.48
H       0.37       3.35       6.84
H       2.38      12.13       3.36
H       7.32      13.48       1.93
H       7.19       3.24       2.41
C      13.54      -0.15       5.49
C      -4.55       6.98      10.49
C      -4.53       6.84      11.90
C      -4.59       5.78       9.62
C       4.66      -8.02      12.74
C       4.67      -6.71      12.23
C       4.65      -6.59      10.84
C       4.60      -5.61       9.69
C      -4.49       9.12       8.73
C      -0.12      -0.26      10.01
C      -1.08       0.65      10.49
C       2.93       5.00       4.43
C      -1.04       0.95      11.85
C      -0.10       0.38      12.74
C       0.89      -0.53      12.23
C      11.11       4.37       5.65
C       0.83      -0.81      10.85
C       1.52      -1.60       9.73
C       0.35      -1.03       8.76
C      14.73      -1.85       4.11
C      13.54      -1.37       4.68
C      12.35      -2.14       4.41
C       1.56       5.15       4.15
C       3.29      12.70       3.56
C       4.49      12.28       2.98
C       5.64      13.03       3.27
C       7.11      13.15       2.97
C      -2.09       1.29       9.62
C      16.24      -1.56       3.98
C       8.97       0.39      10.08
C      10.30       0.45      10.49
C      10.59      -0.22      11.71
C       9.57      -0.80      12.50
C       0.59       4.55       5.04
C       8.21      -0.74      12.12
C       7.97      -0.17      10.87
C       6.85       0.16       9.91
C       8.00       0.84       8.98
C       9.34       4.37       3.90
C      11.27       1.24       9.69
C       9.99       5.05       4.93
C       9.56       6.38       5.16
C       8.57       6.98       4.35
C       7.96       6.28       3.29
C      -0.80       4.76       4.78
C       8.36       4.96       3.11
C       8.15       3.75       2.22
C       9.30       3.06       3.16
C       1.93      -1.13      13.06
C       6.95       6.85       2.34
C       4.66      -5.52      13.12
C      -1.89       4.16       5.60
C       4.51      11.08       2.10
C       7.07      -1.18      12.97
C       2.09       6.54       2.10
C      -1.21       5.53       3.70
C       1.08       3.82       6.15
C       2.43       3.70       6.39
C       3.40       4.28       5.53
C      -0.26       6.09       2.83
C       1.10       5.92       3.03
C      -4.50       8.28       9.99
N      -0.14       0.74      14.05
N       7.83       2.20       8.64
N       8.31       3.96       0.81
N       8.93       1.93       3.89
N       4.74       4.17       5.80
N       1.62      -3.04       9.78
N       0.86      -0.31       7.61
N      -0.57      -2.06       8.31
N      11.12      -1.79       4.90
N       7.94      12.04       3.41
N      17.01      -1.75       5.20
N      16.65      -0.32       3.35
N       6.10      -0.86       9.41
Cl       5.97      -4.46       9.54
Cl      -0.87       6.96       1.46
Cl      12.21      -0.39      12.25
Cl      10.00      -1.65      13.93
Cl       5.78       1.58      10.73
Cl       8.27      -0.12       7.45
Cl       2.98       2.81       7.78
Cl      10.22       7.27       6.47
Cl       8.07       8.59       4.70
Cl      10.90       2.85       2.17
O      -4.60       2.82       7.55
O       5.67      10.66       1.74
O       6.10      -1.74      12.36
O      14.64       0.50       5.58
O       2.04       7.81       1.98
O       7.14      -0.91      14.21
O       2.90       5.75       1.51
O       4.86      -5.71      14.37
O       3.39      10.57       1.77
O       2.85      -1.78      12.46
O       7.24       7.96       1.79
O      12.15       5.05       5.90
O      -4.44       5.97       8.37
O      10.92       3.13       5.90
O      -2.89       2.12      10.16
O      10.91       1.47       8.48
O      -1.73       2.98       6.05
O      12.32       1.67      10.25
O      -2.93       4.89       5.76
O      -2.08       0.95       8.38
O      12.43       0.22       6.06
O      -4.76       4.65      10.20
O       4.59       8.07       0.00
O       1.86      -0.98      14.34
O       5.92       6.12       2.14
O       4.44      -4.41      12.54
