58

Al       3.83       5.05       7.36
Al       0.31       5.02       7.37
H      -1.48       4.25       5.77
H       2.08       5.70       8.99
H      -0.17       5.80       0.97
H       0.73       4.03      13.80
H      -3.52       4.87      11.39
H      -3.52       4.85      13.86
H       4.08       6.41       3.45
H       4.04       6.79       1.00
H       2.93       8.42       7.38
H       2.67       9.96       6.52
H      -4.37       9.92       8.29
H       5.03       0.17       6.38
H      -2.01       0.11       8.15
H      -2.28       1.66       7.31
C       2.09       2.67       7.18
C       2.07       5.62       5.06
C      -1.45       7.40       7.52
C      -1.47       4.60       9.70
C       2.01       5.94       3.60
C      -1.43       4.53      11.19
C       0.82       5.85       2.86
C       0.77       5.97       1.48
C      -0.25       4.34      11.92
C      -0.22       4.24      13.30
C      -2.60       4.69      11.94
C      -2.59       4.66      13.33
C       3.16       6.29       2.88
C       3.13       6.47       1.51
C       1.94       6.27       0.77
C      -1.40       4.41      14.04
C      -2.45       9.78       7.39
C       3.11       0.29       7.29
C      -1.41       8.86       7.45
C       2.07       1.20       7.24
C      -0.53      11.17       7.34
C      -1.93      11.10       7.33
C      -3.91       9.49       7.39
C       4.56       0.59       7.29
S       0.16       9.59       7.42
S       0.50       0.47       7.26
N      -0.48       5.68       3.54
N       1.06       4.30      11.24
O       3.22       3.26       7.13
O       0.94       5.42       5.62
O      -0.30       6.82       7.55
O      -2.61       4.67       9.16
O      -2.59       6.83       7.57
O      -0.34       4.61       9.12
O       0.93       3.22       7.19
O       3.22       5.53       5.58
O      -1.46       4.55       6.70
O       2.07       5.50       8.03
O      -0.99       6.73       3.97
O      -1.00       4.56       3.57
O       1.57       5.41      11.02
O       1.58       3.20      11.02
