118

Zn       5.82       5.77       8.57
Zn       5.65       8.78       8.60
H       8.56      10.90       9.86
H       7.37       9.67      10.26
H       7.61      11.05      11.35
H       7.48      13.06      11.63
H       7.12      14.63      10.88
H       8.48      13.65      10.30
H       2.87      10.83       7.47
H       4.22       9.91       6.79
H       3.78      11.48       6.09
H       3.94      13.95       6.27
H       3.42      14.73       7.76
H       2.72      13.16       7.29
H       3.03       0.87       6.89
H       4.40      -0.08       6.27
H       3.99       1.50       5.55
H       3.95       3.55       5.81
H       4.03       4.86       7.00
H       2.91       3.53       7.25
H       8.80       1.39       9.84
H       8.09      -0.18       9.39
H       7.59       0.61      10.89
H       7.74       3.08      11.06
H       7.30       4.64      10.35
H       8.64       3.71       9.66
H       5.25       4.40       3.90
H       6.26       4.82       5.30
H       7.00       4.24       3.78
H       7.19       4.42       1.82
H       6.79       5.42       0.41
H       5.50       4.67       1.38
H       7.56      10.60       4.19
H       7.18       9.76       5.71
H       5.90      10.57       4.81
H       5.99      10.80       1.87
H       7.21      10.08       0.82
H       7.68      10.73       2.40
H       5.99       9.77      15.98
H       4.54       9.08      16.74
H       4.40      10.13      15.31
H       4.60      10.31      13.17
H       5.77       9.76      11.99
H       6.29      10.19      13.64
H       3.94       3.76      14.58
H       4.30       4.37      16.20
H       5.59       3.73      15.19
H       5.66       4.02      12.28
H       4.50       4.93      11.30
H       3.95       4.05      12.74
H       0.34       4.19       8.70
H      11.14      10.19       8.52
C       5.91       7.38       5.97
C       3.14       7.16       8.69
C       5.58       7.29      11.18
C       8.34       7.23       8.47
C       4.80      11.63       7.97
C       4.72      13.03       8.06
C       5.63      13.68       8.92
C       6.52      12.93       9.71
C       6.54      11.54       9.55
C       4.98       1.61       7.46
C       5.87       0.87       8.24
C       6.79       1.52       9.09
C       6.70       2.92       9.19
C       4.94       3.01       7.63
C       6.28       7.44       4.50
C       6.56       8.71       3.90
C       6.63       8.83       2.49
C       6.51       7.67       1.70
C       6.45       6.39       2.29
C       6.30       6.27       3.69
C       5.08       8.13      14.89
C       4.99       6.83      15.44
C       4.91       5.69      14.60
C       5.00       5.87      13.20
C       5.28       7.16      12.66
C       5.28       8.29      13.51
C       0.77       6.04       8.67
C      10.71       8.33       8.54
C       1.66       7.11       8.69
C       9.81       7.27       8.50
C      12.06       7.89       8.59
C      -0.58       6.49       8.61
C       7.56      10.74      10.30
C       7.45      13.61      10.68
C       3.87      10.92       7.03
C       3.65      13.76       7.31
C       4.05       0.94       6.49
C       3.91       3.79       6.88
C       7.87       0.80       9.84
C       7.64       3.63      10.11
C       6.20       4.86       4.22
C       6.49       5.16       1.43
C       6.82       9.97       4.70
C       6.90      10.17       1.86
C       4.99       9.34      15.78
C       5.51       9.71      13.04
C       4.66       4.32      15.17
C       4.76       4.66      12.33
S       0.85       8.66       8.62
S      10.63       5.72       8.53
N       5.70      10.91       8.69
N       5.66      15.09       9.11
N       5.85      -0.54       8.05
N       5.79       3.64       8.48
N       6.57       7.67       0.28
N       4.91       6.79      16.85
O       5.75       6.26       6.55
O       5.72       8.49       6.57
O       3.62       8.32       8.48
O       3.79       6.09       8.89
O       5.32       8.39      10.59
O       6.11       6.29      10.59
O       7.84       6.05       8.35
O       7.70       8.32       8.57
O       1.14       4.73       8.71
O      10.34       9.65       8.52
