134

Zn       8.42      10.45       9.54
Zn       8.09       7.68       9.59
H       5.62      10.23      18.33
H       7.14       2.95      11.31
H       9.84      12.76       8.14
H       6.93       5.45      11.22
H      10.01      17.16       9.25
H       6.46       0.99       9.94
H       4.40       8.67      11.40
H      12.12      10.62      11.61
H      16.54       8.94       9.04
H      -0.22       9.23      12.07
H      14.57      10.67      12.09
H       8.88       7.20       0.86
H       1.95       8.54      11.76
H       6.83       7.00      13.58
H       8.70      10.92       5.18
H       6.60       6.84      16.06
H       8.21      10.81       2.73
H      11.90       7.56       7.64
H      13.51       6.81       7.60
H      12.05       5.81       7.39
H      12.90       5.53       9.73
H      11.35       6.35       9.75
H       5.93      10.29       1.39
H       4.78       8.08       6.48
H       3.17       8.38       5.78
H       4.62       9.15       5.07
H       3.38      10.83       6.47
H       4.97      10.49       7.15
H      -0.14      11.43       8.54
H       1.20      12.15       7.62
H      -0.28      11.63       6.78
H       1.53       9.95       6.42
H       0.21       9.24       7.31
H       8.57       7.15      17.80
H      16.19       6.30      12.07
H      14.73       5.32      11.87
H      16.26       4.81      11.11
H      14.79       5.83       9.37
H      16.21       6.82       9.63
H       6.44      12.76      15.57
H       5.73      12.04      17.03
H       6.95      13.32      17.18
H       8.01      11.10      17.65
H       8.69      11.84      16.19
H       7.00      12.40      11.13
H       5.10       6.37       4.33
H       4.88       7.11       2.73
H       4.92       5.33       2.89
H       7.09       6.18       1.98
H       7.33       5.43       3.57
H       9.24       5.68       7.80
H       6.63      14.87      11.21
H       9.60       3.20       7.75
H       9.58      15.24       8.06
C       8.54       8.99       7.01
C       7.49       7.57       3.57
C       7.56      10.18      14.42
C       7.81       7.68       4.93
C       7.37       9.07      13.59
C       8.26       8.86       5.54
C       6.32       9.50      18.75
C       8.17       7.92       0.44
C       6.54       9.66       0.74
C       7.95       7.75      18.46
C       7.43       8.74       1.30
C       7.62       9.07      12.11
C       7.10       8.72      17.89
C       7.55      13.08      10.48
C       8.81       5.02       8.56
C      10.75       8.86      10.22
C       5.71       9.31       9.20
C       7.35      14.45      10.51
C       9.00       3.65       8.54
C       8.08      15.28       9.64
C       8.40       2.86       9.53
C       9.00      14.66       8.78
C       7.00       7.87      14.22
C       7.62       3.51      10.51
C       9.14      13.28       8.80
C       7.50       4.89      10.47
C       9.01      17.58       9.38
C       7.45       0.56       9.80
C       9.78       0.76       9.35
C       6.68      17.38       9.83
C       8.55       1.39       9.56
C       7.91      16.74       9.62
C      12.20       8.73      10.58
C       8.37       9.99       4.72
C       4.22       9.32       9.36
C      13.00       7.63      10.20
C       3.36       9.67       8.30
C      14.39       7.67      10.43
C       1.97       9.59       8.49
C      14.96       8.81      11.06
C       1.45       9.20       9.76
C      14.13       9.82      11.56
C       2.34       8.88      10.80
C      12.77       9.80      11.29
C       6.88       7.78      15.59
C       3.71       8.94      10.60
C      16.43       9.02      11.10
C       0.01       9.05       9.95
C      12.39       6.46       9.45
C      12.47       6.67       7.93
C       3.98      10.05       6.96
C       4.14       8.85       6.02
C       1.02       9.98       7.38
C       0.41      11.38       7.59
C      15.28       6.49      10.10
C       8.09       9.93       3.36
C      15.63       5.68      11.36
C       7.78      11.39      16.61
C       6.66      12.44      16.60
C       6.88       6.29       3.05
C       5.36       6.27       3.26
C       7.11       8.90      16.41
C       7.66       8.73       2.77
C       7.45      10.14      15.82
N       8.42      12.50       9.63
N       8.09       5.64       9.51
O       8.46      10.16       7.49
O       7.32       7.99      11.49
O       8.82       7.93       7.66
O       8.12      10.11      11.58
O      10.39      10.01       9.78
O       6.23       8.19       8.90
O       9.98       7.86      10.37
O       6.34      10.38       9.44
F      10.90       1.52       9.14
F       5.55      16.63      10.02
F       7.89      11.39      13.89
F       7.62       6.56       5.68
