156

Cu      -9.39      10.11      17.20
Cu      -5.33       3.08      17.20
Cu     -13.45       3.08      17.20
Cu       9.40       0.74       1.01
Cu      13.47       7.78       1.01
Cu       5.34       7.78       1.01
H       2.81      14.98       3.55
H      12.94      -0.90       7.87
H     -10.16       9.76      14.73
H       2.16       6.36       3.55
H       2.16       5.53       7.86
H      -5.24       3.92      14.74
H      -4.97      11.24       3.55
H      -5.69      11.65       7.87
H       6.04       2.58      14.74
H       2.83      -4.13      14.66
H      -5.86      11.75      10.34
H       8.63       1.08       3.47
H       2.18       4.49      14.66
H       2.17       5.32      10.34
H      -5.26       6.93       3.47
H      -4.96      -0.39      14.66
H      -5.68      -0.80      10.35
H       6.03       8.27       3.47
H      -2.80      -4.13      14.66
H     -12.93      11.75      10.34
H      10.18       1.09       3.47
H      -2.14       4.49      14.66
H      -2.15       5.32      10.35
H       5.26       6.93       3.47
H       4.99      -0.39      14.66
H       5.70      -0.80      10.34
H      -6.03       8.27       3.47
H      -2.81      14.98       3.55
H       5.87      -0.90       7.87
H      -8.62       9.77      14.74
H      -2.16       6.36       3.55
H      -2.15       5.53       7.87
H       5.27       3.92      14.73
H       4.97      11.24       3.55
H       5.70      11.65       7.86
H      -6.02       2.58      14.74
H       2.76      12.45       0.07
H       0.00       7.68       0.07
H      -2.76      12.45       0.06
H       2.77      -1.60      18.15
H       0.01       3.17      18.14
H      -2.74      -1.60      18.14
C       1.78      14.78       1.07
C       2.72      13.82       1.73
C       3.14      14.07       3.04
C      13.45      -1.70       8.42
C       2.51       7.36       1.07
C       1.21       7.02       1.74
C       1.21       6.53       3.04
C       1.22       5.48       8.41
C      -4.28      10.44       1.07
C      -3.93      11.73       1.73
C      -4.35      11.97       3.04
C      -5.26      12.49       8.41
C       1.79      -3.93      17.14
C       2.73      -2.98      16.48
C       3.16      -3.22      15.17
C      -5.35      12.55       9.80
C       2.52       3.49      17.14
C       1.22       3.83      16.47
C       1.23       4.32      15.17
C       1.22       5.37       9.79
C      -4.27       0.41      17.14
C      -3.91      -0.88      16.47
C      -4.34      -1.12      15.16
C      -5.25      -1.64       9.80
C      -1.76      -3.93      17.14
C      -2.70      -2.97      16.47
C      -3.13      -3.22      15.17
C     -13.44      12.55       9.79
C      -2.49       3.49      17.14
C      -1.20       3.83      16.47
C      -1.20       4.32      15.16
C      -1.21       5.37       9.80
C       4.30       0.41      17.14
C       3.94      -0.88      16.48
C       4.37      -1.12      15.17
C       5.27      -1.64       9.80
C      -1.78      14.78       1.07
C      -2.72      13.83       1.73
C      -3.14      14.07       3.04
C       5.36      -1.69       8.41
C      -2.50       7.36       1.07
C      -1.21       7.02       1.73
C      -1.21       6.53       3.04
C      -1.21       5.48       8.42
C       4.28      10.44       1.07
C       3.93      11.73       1.74
C       4.35      11.97       3.04
C       5.27      12.49       8.41
C       3.11      12.65       1.08
C       3.95      13.14       3.72
C       4.27      13.33       5.09
C       4.46      13.43       6.29
C       4.60      13.51       7.69
C       0.00       7.27       1.08
C      -0.00       6.30       3.72
C      -0.00       5.93       5.09
C       0.00       5.71       6.29
C       0.00       5.55       7.69
C      -3.11      12.66       1.07
C      -3.95      13.14       3.72
C      -4.27      13.33       5.09
C      -4.45      13.43       6.29
C      -4.60      13.51       7.69
C       3.13      -1.81      17.14
C       3.96      -2.29      14.49
C       4.29      -2.47      13.12
C       4.47      -2.58      11.92
C       4.61      -2.66      10.52
C       0.01       3.58      17.13
C       0.02       4.55      14.49
C       0.02       4.93      13.12
C       0.01       5.14      11.92
C       0.01       5.31      10.52
C      -3.09      -1.80      17.13
C      -3.93      -2.29      14.49
C      -4.26      -2.48      13.12
C      -4.44      -2.58      11.92
C      -4.59      -2.66      10.52
O      10.80      -0.49       1.74
O      -8.00       9.04      18.10
O       3.58       7.18       1.74
O      -6.95       2.40      18.10
O      -4.98       9.60       1.74
O     -13.23       4.82      18.09
O      -7.99      11.34      16.47
O      10.80       1.81       0.11
O       3.59       3.67      16.47
O      11.84       8.45       0.11
O      -4.96       1.25      16.47
O       5.57       6.03       0.11
O     -10.79      11.34      16.47
O       8.01       1.81       0.11
O      -3.56       3.67      16.47
O       6.96       8.45       0.11
O       4.99       1.25      16.47
O      13.24       6.03       0.11
O       8.00      -0.49       1.74
O     -10.79       9.04      18.09
O      -3.58       7.18       1.74
O     -11.83       2.41      18.10
O       4.98       9.60       1.74
O      -5.56       4.82      18.10
O      -9.39       9.25      15.04
O      -6.08       3.51      15.04
O       6.10       3.51      15.04
O       9.40       1.60       3.17
O      -6.09       7.34       3.17
O       6.09       7.34       3.17
