122

Al       3.94      21.80      12.58
Al       0.00       7.27       4.19
H       1.79      11.57       9.15
H       2.15      13.72       5.44
H       2.15      15.35      11.34
H       1.80      17.49       7.62
H       1.79       0.82       5.44
H       2.15       2.96       9.16
H       2.15      -2.96       7.62
H       1.80      -0.81      11.34
H       1.79      -5.12      23.16
H       2.15      -9.40      23.16
H       2.15      -5.12      18.79
H       1.80      -9.41      18.79
H       2.81       8.62       8.32
H       1.21       8.30       7.64
H       1.36       9.23       9.15
H       1.14      11.52       3.31
H       2.74      10.77       3.36
H       2.59      12.54       3.42
H       1.14      17.55      13.48
H       2.73      18.30      13.42
H       2.58      16.52      13.36
H       2.81      20.44       8.46
H       1.22      20.77       9.14
H       1.36      19.83       7.63
H       2.81       3.01       3.30
H       1.21       3.77       3.36
H       1.36       1.99       3.42
H       1.14       5.91       8.32
H       2.74       6.24       7.64
H       2.59       5.30       9.15
H       1.14      23.15       8.46
H       2.73      22.83       9.14
H       2.58      23.76       7.63
H       2.81      -3.01      13.47
H       1.21      -3.76      13.42
H       1.36      -1.99      13.36
H       2.81      10.16       0.96
H       1.22       9.74       1.58
H       1.36      10.58       0.01
H       1.14       4.37       0.96
H       2.74       4.79       1.58
H       2.59       3.95       0.01
H       1.14      -4.36      15.82
H       2.73      -4.79      15.20
H       2.58      -3.95      16.77
H       2.81      18.90      15.82
H       1.22      19.33      15.20
H       1.36      18.49      16.77
C       1.97      -7.26      14.66
C       1.97      20.00      11.55
C       1.97      -5.47      11.55
C       1.98       9.06       5.23
C       1.98       5.47       5.23
C       1.98       7.27       2.12
C       1.98      10.36       5.98
C       1.90      10.34       7.39
C       1.88      11.56       8.07
C       1.97      12.78       7.38
C       2.07      12.77       5.97
C       2.05      11.57       5.26
C       1.97      14.00       8.08
C       1.97      15.06       8.70
C       1.97      16.28       9.40
C       2.06      16.30      10.80
C       2.05      17.50      11.52
C       1.97      18.71      10.80
C       1.90      18.72       9.39
C       1.88      17.51       8.71
C       1.98       4.18       5.98
C       1.90       2.96       5.26
C       1.88       1.77       5.98
C       1.97       1.75       7.38
C       2.07       2.98       8.07
C       2.05       4.19       7.39
C       1.97       0.53       8.09
C       1.97      -0.53       8.69
C       1.97      -1.75       9.40
C       2.06      -2.97       8.71
C       2.05      -4.19       9.39
C       1.97      -4.17      10.80
C       1.89      -2.96      11.52
C       1.88      -1.76      10.80
C       1.98       7.27       0.63
C       1.90      -6.03      25.10
C       1.88      -6.05      23.71
C       1.97      -7.26      23.00
C       2.07      -8.47      23.71
C       2.05      -8.49      25.10
C       1.97      -7.26      21.58
C       1.97      -7.26      20.36
C       1.97      -7.26      18.95
C       2.06      -6.05      18.24
C       2.05      -6.03      16.84
C       1.97      -7.26      16.15
C       1.89      -8.49      16.84
C       1.88      -8.47      18.24
C       1.81       9.06       8.17
C       2.14      11.60       3.76
C       2.13      17.47      13.02
C       1.81      20.01       8.61
C       1.81       2.93       3.76
C       2.14       5.48       8.17
C       2.13      23.59       8.61
C       1.81      -2.93      13.02
C       1.81       9.81       0.66
C       2.14       4.72       0.66
C       2.13      -4.72      16.12
C       1.81      19.25      16.12
O       1.04      -6.31      11.29
O       1.04      -6.62      14.06
O       1.04      20.20      12.40
O       2.90      -5.66      12.40
O       2.90      20.84      11.29
O       2.90      -7.90      14.06
O       1.05       6.62       2.72
O       1.05       8.87       4.38
O       1.05       6.31       5.49
O       2.90       7.91       2.72
O       2.90       5.67       4.38
O       2.90       8.22       5.49
