148

Co       5.57       4.68      14.05
Co       1.86       4.68      14.05
Co       1.86      14.05       4.68
Co       5.57      14.05       4.68
H       6.90       2.35       0.60
H       6.90       7.02       8.77
H       4.25       7.02       0.60
H       0.53       9.97      11.71
H       3.18       9.97      16.39
H       3.18      18.13      11.71
H       0.53      18.13      16.39
H       4.25       2.35       8.77
H       0.53      16.39      18.13
H       0.53      11.71       9.97
H       3.18      11.71      18.13
H       6.90       8.77       7.02
H       4.25       8.77       2.35
H       4.25       0.60       7.02
H       6.90       0.60       2.35
H       3.18      16.39       9.97
H       5.19       3.65      17.99
H       5.19       5.72      10.11
H       5.96       5.72      17.99
H       2.24       8.63      13.02
H       1.47       8.63      15.08
H       1.47       0.74      13.02
H       2.24       0.74      15.08
H       5.96       3.65      10.11
H       2.24      15.08       0.74
H       2.24      13.02       8.62
H       1.47      13.02       0.74
H       5.19      10.11       5.72
H       5.96      10.11       3.65
H       5.96      17.99       5.72
H       5.19      17.99       3.65
H       1.47      15.08       8.63
H       4.32       3.53      16.46
H       4.32       5.84      11.64
H       6.83       5.84      16.46
H       3.11       7.10      12.89
H       0.61       7.10      15.21
H       0.61       2.27      12.89
H       3.11       2.27      15.21
H       6.83       3.53      11.64
H       3.11      15.21       2.27
H       3.11      12.89       7.10
H       0.61      12.89       2.27
H       4.32      11.64       5.84
H       6.83      11.64       3.53
H       6.83      16.46       5.84
H       4.32      16.46       3.53
H       0.61      15.21       7.10
H       4.74       2.05      17.39
H       4.74       7.31      10.71
H       6.41       7.31      17.39
H       2.69       8.03      11.42
H       1.02       8.03      16.68
H       1.02       1.34      11.42
H       2.69       1.34      16.68
H       6.41       2.05      10.71
H       2.69      16.68       1.34
H       2.69      11.42       8.03
H       1.02      11.42       1.34
H       4.74      10.71       7.31
H       6.41      10.71       2.05
H       6.41      17.39       7.31
H       4.74      17.39       2.05
H       1.02      16.68       8.03
C       7.11       1.31       0.33
C       7.12       8.05       9.04
C       4.03       8.05       0.33
C       0.32       9.70      10.68
C       3.40       9.70      17.42
C       3.40      18.41      10.68
C       0.32      18.41      17.42
C       4.03       1.31       9.04
C       0.32      17.42      18.41
C       0.32      10.68       9.70
C       3.40      10.68      18.41
C       7.12       9.04       8.05
C       4.03       9.04       1.31
C       4.03       0.33       8.05
C       7.11       0.33       1.31
C       3.40      17.42       9.70
C       7.43       1.01      17.73
C       0.00       8.36      10.37
C       3.72       8.36      17.73
C       3.72       1.01      10.37
C       7.43      17.73       1.01
C       0.00      10.37       8.36
C       3.72      10.37       1.01
C       3.72      17.73       8.36
C       7.43       2.04      16.69
C       0.00       7.32      11.41
C       3.72       7.32      16.69
C       3.72       2.04      11.41
C       7.43      16.69       2.04
C       7.43      11.41       7.32
C       3.72      11.41       2.04
C       3.72      16.69       7.32
C       6.39       2.94      16.38
C       6.39       6.43      11.73
C       4.75       6.43      16.38
C       1.04       7.01      12.30
C       2.68       7.01      15.80
C       2.68       2.36      12.30
C       1.04       2.36      15.80
C       4.75       2.94      11.73
C       1.04      15.80       2.36
C       1.04      12.30       7.01
C       2.68      12.30       2.36
C       6.39      11.73       6.43
C       4.75      11.73       2.94
C       4.75      16.38       6.43
C       6.39      16.38       2.94
C       2.68      15.80       7.01
C       5.08       3.05      17.08
C       5.08       6.32      11.02
C       6.06       6.32      17.08
C       2.35       7.71      12.41
C       1.37       7.71      15.69
C       1.37       1.66      12.41
C       2.35       1.66      15.69
C       6.06       3.05      11.02
C       2.35      15.69       1.66
C       2.35      12.41       7.71
C       1.37      12.41       1.66
C       5.08      11.02       6.32
C       6.06      11.02       3.05
C       6.06      17.08       6.32
C       5.08      17.08       3.05
C       1.37      15.69       7.71
N       6.78       3.73      15.34
N       6.78       5.64      12.76
N       4.37       5.64      15.34
N       0.65       5.97      13.09
N       3.06       5.97      15.01
N       3.06       3.40      13.09
N       0.65       3.40      15.01
N       4.37       3.73      12.76
N       0.65      15.01       3.40
N       0.65      13.09       5.97
N       3.06      13.09       3.40
N       6.78      12.76       5.64
N       4.37      12.76       3.73
N       4.37      15.34       5.64
N       6.78      15.34       3.73
N       3.06      15.01       5.97
