138

Mg       1.20      16.06       9.82
Mg      -1.07      17.70       9.00
Mg       3.47      17.59      10.83
Mg      -0.20       1.05      19.64
Mg       2.07      -0.42      20.74
Mg       4.35      -0.63      18.92
H       3.63      -0.08      26.30
H      -0.92      -5.62      16.44
H       1.35       5.69      16.56
H      -0.83       1.56      27.43
H       1.44      -7.41      17.29
H       3.71       5.85      14.59
H      -2.76       0.36      24.36
H      -0.49      -4.16      17.78
H       1.78       3.80      17.16
H       1.95       1.66      23.59
H       4.22      -4.14      19.29
H      -0.32       2.48      16.42
H       1.03       1.74      25.89
H       3.30      -6.17      18.22
H      -1.24       4.42      15.20
H       4.36      17.84       3.32
H       2.09      22.44      13.78
H      -0.18      11.08      12.54
H       1.87      16.51       2.09
H      -0.41      24.16      13.26
H       4.13      10.67      14.30
H       3.81      17.40       5.27
H       1.54      20.97      12.44
H      -0.73      12.98      11.94
H      -0.95      16.13       5.85
H       3.59      21.11      11.05
H       1.32      14.11      12.75
H       0.02      16.26       3.56
H      -2.26      23.02      12.30
H       2.29      12.07      13.78
C       3.89      16.84       0.05
C       1.62      25.77      14.56
C      -0.66       8.73      15.03
C       4.37      17.45       1.23
C       2.10      24.45      14.49
C      -0.18       9.46      13.92
C      -1.21      18.13       1.08
C       3.33      24.24      15.15
C       1.06       8.99      13.41
C      -2.79       1.07      29.53
C      -0.52      -8.99      15.80
C       1.76       7.92      13.96
C      -3.26       0.45      28.36
C      -0.99      -7.67      15.87
C       1.28       7.21      15.08
C       2.32      -0.22      28.51
C       4.59      -7.46      15.21
C       0.04       7.67      15.58
C      -2.63       0.47      27.06
C      -0.35      -6.55      16.53
C       1.92       6.08      15.71
C      -1.46       1.05      26.69
C       0.82      -6.52      17.21
C       3.09       5.47      15.40
C      -0.94       1.03      25.33
C       1.33      -5.33      17.87
C       3.61       4.30      16.10
C      -1.72       0.64      24.24
C       0.56      -4.19      18.08
C       2.83       3.55      16.98
C      -1.22       0.59      22.93
C       1.05      -3.03      18.70
C       3.33       2.44      17.68
C       0.15       0.95      22.67
C       2.42      -2.99      19.14
C      -2.12       2.04      17.49
C       0.92       1.37      23.78
C       3.19      -4.16      18.95
C      -1.35       2.79      16.58
C       0.40       1.41      25.06
C       2.67      -5.29      18.34
C      -1.87       3.87      15.90
C      -2.15       0.15      21.87
C       0.12      -1.90      18.85
C       2.39       1.75      18.58
C       3.75      17.40       2.53
C       1.47      23.34      13.80
C      -0.80      10.61      13.31
C       2.53      16.90       2.87
C       0.25      23.30      13.21
C      -2.02      11.15      13.57
C       1.99      16.85       4.22
C      -0.28      22.15      12.48
C       4.26      12.35      12.94
C       2.76      17.12       5.36
C       0.49      21.03      12.15
C      -1.78      13.20      12.14
C       2.24      17.04       6.66
C      -0.03      19.95      11.43
C       4.51      14.37      11.56
C       0.87      16.67       6.85
C      -1.40      19.96      11.01
C       3.14      14.72      11.79
C       0.10      16.41       5.70
C      -2.18      21.09      11.36
C       2.37      13.85      12.59
C       0.64      16.49       4.43
C      -1.63      22.15      12.06
C       2.91      12.71      13.15
C       3.16      17.33       7.78
C       0.89      18.83      11.12
C      -1.38      15.19      10.75
O       4.34      17.76       7.56
O       2.07      18.81      11.60
O      -0.20      14.78      10.49
O       2.75      17.12       8.99
O       0.48      17.89      10.33
O      -1.79      16.34      10.33
O       0.29      16.55       8.06
O      -1.98      18.98      10.30
O       2.56      15.82      11.29
O       3.48      -0.23      22.16
O      -1.06      -1.96      18.38
O       1.21       2.18      18.77
O      -1.75       0.18      20.64
O       0.52      -0.85      19.49
O       2.79       0.67      19.18
O       0.72       0.91      21.46
O       2.99      -1.92      19.71
O      -1.55       1.01      18.14
F       2.73      16.14       0.06
F       0.45      26.10      13.97
F      -1.83       9.08      15.62
F      -0.67      18.76       2.16
F      -2.94      22.99      15.15
F       1.60       9.62      12.33
F      -1.62       1.76      29.52
F       0.66      -9.32      16.40
F       2.93       7.57      13.37
F       1.78      -0.85      27.43
F       4.04      -6.21      15.21
F      -0.50       7.05      16.66
