212

Hf       1.62      16.20      17.46
Hf       1.48      16.33      13.94
Hf      16.25       1.55      17.61
Hf      16.12       1.75      14.10
Hf       2.07       2.15      15.79
Hf      15.67      15.75      15.77
Hf      10.28      10.39       1.53
Hf      10.07      10.24      29.95
Hf       7.83       7.87       1.67
Hf       7.56       7.79      30.09
Hf       7.16      10.86      31.80
Hf      10.69       7.32      31.76
H       0.96      14.15      15.76
H       1.63       1.83      12.99
H      14.09       1.26      15.80
H       1.72       1.70      18.63
H       1.84      16.75      11.27
H       0.07       0.60      11.79
H      14.68       3.94      14.08
H      13.85       2.79      18.39
H      15.85       1.04      20.20
H       0.51       0.17      19.77
H       3.87      14.78      17.35
H       3.14      14.69      15.48
H      14.98       3.90      18.18
H       0.95      15.72      20.06
H       2.93      13.92      14.03
H      15.64       1.07      11.51
H      12.26       9.95      31.74
H       7.47      10.43      28.99
H       8.05       5.76      31.79
H       7.63      10.45       2.68
H       9.56      10.73      27.31
H       8.70       8.89      27.78
H       5.36       6.35      30.07
H       6.59       5.47       2.45
H       8.33       7.47       4.26
H       9.21       9.27       3.84
H      11.74      12.57       1.60
H      12.45      11.41      29.20
H       5.48       6.59       2.24
H      10.76       9.72       4.11
H      11.40      12.61      29.39
H       8.26       7.35      27.50
C       4.24       0.92      17.84
C      16.73      13.70      13.55
C       4.16       1.01      13.66
C      16.73      13.68      17.99
C      13.64      16.76      18.07
C       0.94       4.36      13.79
C      13.60      16.76      13.60
C       0.94       4.29      17.89
C       0.62       7.89      19.78
C       0.40       8.96      21.75
C       0.03      10.07      19.82
C       9.99       0.04      19.84
C       8.87       0.41      21.77
C       7.81       0.63      19.78
C       9.98      17.14      11.81
C       7.79       0.63      11.84
C       8.86       0.37       9.87
C       0.65       7.91      11.83
C       0.37       8.94       9.84
C       0.01      10.07      11.76
C       8.68      16.61      27.82
C       9.27       1.66      27.75
C       8.91       0.53      25.84
C       8.34      13.00       1.87
C      12.73       8.34      29.52
C       8.30      13.01      29.69
C      12.77       8.25       2.02
C       9.72       5.24       2.11
C       4.95       9.73      29.78
C       9.66       5.28      29.56
C       5.04       9.63       1.93
C       1.42       9.37      27.81
C       0.41       9.00      25.82
C      16.37       8.71      27.74
C       8.65      16.56       3.81
C       8.90       0.47       5.80
C       9.27       1.60       3.89
C       1.45       9.21       3.80
C      16.39       8.60       3.83
C       0.40       8.90       5.77
C       9.75       3.92       2.71
C       9.58       2.83       3.23
C       8.28      14.31       2.48
C       8.39      15.37       3.07
C       3.65       9.80      29.15
C       2.60       9.66      28.55
C      14.04       8.29      28.92
C      15.14       8.43      28.40
C       3.72       9.64       2.51
C       2.65       9.49       3.08
C      14.08       8.18       2.63
C      15.17       8.32       3.16
C       9.56       2.89      28.42
C       9.71       3.98      28.94
C       8.42      15.41      28.56
C       8.29      14.34      29.12
C       0.41       8.90       7.20
C       0.40       8.90       8.41
C       8.85       0.40       8.44
C       8.87       0.43       7.23
C       8.86       0.46      23.19
C       8.88       0.49      24.41
C       0.44       8.97      24.39
C       0.44       8.95      23.18
C      16.83      11.30      12.42
C      16.68      12.39      12.94
C       1.02       5.66      13.17
C       0.91       6.72      12.58
C      16.70      12.37      18.61
C      16.85      11.29      19.14
C       0.86       6.68      19.06
C       0.98       5.61      18.48
C      12.29      16.71      13.00
C      11.20      16.86      12.48
C       5.49       1.02      13.09
C       6.58       0.88      12.55
C      11.23      16.88      19.17
C      12.32      16.72      18.66
C       5.54       0.97      18.47
C       6.60       0.86      19.05
N       0.71       7.81      21.12
N       0.05      10.12      21.16
N       0.30       8.98      19.06
N      10.03       0.06      21.19
N       7.72       0.72      21.13
N       8.91       0.31      19.08
N       8.88       0.31      12.56
N       7.71       0.70      10.50
N      10.03      17.14      10.46
N       0.72       7.81      10.49
N      -0.00      10.10      10.41
N       0.32       9.01      12.53
N       8.99       0.59      28.52
N       9.27       1.69      26.40
N       8.60      16.51      26.48
N       1.53       9.38      26.47
N      16.36       8.64      26.40
N       0.31       9.06      28.51
N       8.57      16.46       5.15
N       9.27       1.63       5.23
N       8.98       0.54       3.11
N       0.35       8.91       3.08
N      16.35       8.56       5.18
N       1.54       9.25       5.14
O       3.60      16.98      18.11
O       3.87       1.89      17.11
O       0.65      14.37      13.23
O      15.81      14.05      14.35
O       3.45       0.03      13.27
O       3.84       1.94      14.46
O       0.61      14.39      18.36
O      15.85      13.97      17.12
O       3.00      14.70      16.93
O       1.28      16.55      19.66
O       3.07      14.79      14.42
O       1.12      16.68      11.91
O       2.08       0.10      15.73
O       0.73      15.10      15.75
O      14.33       0.64      18.45
O      13.97      15.87      17.23
O      16.99       3.73      13.50
O       1.90       3.97      14.54
O      14.32       0.58      13.18
O      13.89      15.91      14.52
O      16.98       3.65      18.15
O       1.92       3.90      17.19
O      14.56       3.11      17.80
O      16.63       1.26      19.66
O      14.58       3.00      14.28
O      16.47       1.38      11.91
O      14.99       0.91      15.87
O       0.03       2.20      15.86
O      16.71      16.73      17.23
O       1.24       1.46      13.80
O       1.34       1.32      17.81
O      16.65      16.80      14.34
O       9.41      12.36       2.15
O       7.37      12.61       1.14
O      12.05       9.36      29.17
O      12.38       7.43      30.33
O       9.34      12.33      29.37
O       7.34      12.64      30.43
O      12.04       9.19       2.46
O      12.50       7.42       1.09
O      11.83      11.62       1.38
O       9.92      10.03       3.72
O      11.78      11.80      29.80
O       9.75       9.99      27.90
O       9.21      10.92      31.72
O      11.35       9.61      31.70
O       8.73       5.95       2.50
O      10.60       5.55       1.26
O       5.59       8.67      29.49
O       5.34      10.69      30.52
O       8.72       6.02      29.15
O      10.50       5.55      30.49
O       5.71       8.58       2.21
O       5.43      10.62       1.24
O       6.27       6.17       1.85
O       8.11       8.25       3.71
O       6.31       6.25      30.25
O       7.94       8.18      27.90
O       8.40       6.67      31.85
O       7.11       8.82      31.84
O       9.75       8.33       1.26
O       7.85      10.05      29.79
O       8.01      10.08       1.87
O       9.63       8.31      30.32
