56

Al       6.07       5.84       8.42
Al       9.39       5.84       8.42
H       4.42       6.70       6.90
H       7.72       4.97       9.94
H       9.21       7.06      12.39
H       9.12       7.23      14.89
H       6.08       4.87      15.13
H       6.06       6.81       1.72
H       3.02       4.45       1.96
H       2.93       4.61       4.46
H       5.87       9.80       7.47
H       6.27       1.87       9.38
H       1.59       1.05       6.52
H       2.54       2.54       6.27
H       8.15       2.39       7.69
H       3.99       9.28       9.15
H       9.60       9.13      10.57
H      10.55      10.62      10.33
C       7.71       8.26       8.51
C       7.75       5.73       6.00
C       4.44       3.41       8.34
C       4.39       5.94      10.85
C       4.40       5.93      12.34
C       9.98       6.61      13.01
C       9.92       6.69      14.39
C       4.29       6.07      15.15
C       5.32       5.37      14.52
C       5.39       5.30      13.13
C       6.82       6.31       2.33
C       7.85       5.61       1.69
C       2.22       4.98       2.46
C       2.16       5.07       3.84
C       7.74       5.74       4.50
C       6.75       6.37       3.72
C       4.40       1.92       8.33
C       7.74       9.75       8.52
C       3.33       1.19       7.77
C       8.81      10.48       9.08
C       6.67      10.41       7.89
C       5.47       1.26       8.95
C       2.18       1.83       7.03
C       9.96       9.85       9.82
N       4.34       6.06      16.57
N       7.80       5.61       0.28
Cl       6.68       4.36      12.46
Cl       5.46       7.31       4.38
O       6.56       7.70       8.57
O       8.89       5.63       6.56
O       3.32       4.01       8.47
O       5.51       5.86      10.25
O       5.58       3.98       8.27
O       3.25       6.04      10.29
O       8.82       7.66       8.38
O       6.64       5.81       6.59
O       4.41       6.40       7.83
O       7.73       5.27       9.02
