380

Zn       5.98       1.63       3.31
Zn      13.72       1.63      27.53
Zn      15.83      10.44      12.11
Zn       3.87      10.44      18.73
Zn      13.72      22.50      27.53
Zn       5.98      22.50       3.31
Zn       3.87      13.69      18.73
Zn      15.83      13.69      12.11
Zn       3.66       0.00       1.80
Zn      16.04       0.00      29.05
Zn      13.51      12.07      13.62
Zn       6.19      12.07      17.22
Zn       3.70       0.00       4.91
Zn      16.00       0.00      25.94
Zn      13.55      12.07      10.52
Zn       6.15      12.07      20.33
H       6.68       4.44       0.26
H      13.01       4.44      30.58
H      16.53       7.63      15.16
H       3.16       7.63      15.68
H      13.01      19.69      30.58
H       6.68      19.69       0.26
H       3.16      16.50      15.68
H      16.53      16.50      15.16
H       6.84       5.93      29.11
H      12.86       5.93       1.73
H      16.69       6.14      17.16
H       3.01       6.14      13.69
H      12.86      18.20       1.73
H       6.84      18.20      29.11
H       3.01      17.99      13.69
H      16.69      17.99      17.16
H       3.37       3.99      27.42
H      16.33       3.99       3.42
H      13.22       8.08      18.84
H       6.48       8.08      12.00
H      16.33      20.14       3.42
H       3.37      20.14      27.42
H       6.48      16.05      12.00
H      13.22      16.05      18.84
H       3.24       2.52      29.39
H      16.46       2.52       1.45
H      13.09       9.55      16.87
H       6.61       9.55      13.97
H      16.46      21.61       1.45
H       3.24      21.61      29.39
H       6.61      14.58      13.97
H      13.09      14.58      16.87
H       6.09       6.68      27.06
H      13.61       6.68       3.78
H      15.94       5.39      19.20
H       3.76       5.39      11.64
H      13.61      17.45       3.78
H       6.09      17.45      27.06
H       3.76      18.75      11.64
H      15.94      18.75      19.20
H      19.18      24.13       1.23
H       0.52      24.13      29.62
H       9.33      12.07      14.19
H      10.37      12.07      16.65
H      16.71      24.13       1.28
H       2.99      24.13      29.56
H       6.86      12.07      14.14
H      12.84      12.07      16.70
H      16.82      24.13       5.60
H       2.88      24.13      25.25
H       6.97      12.07       9.82
H      12.73      12.07      21.02
H      19.31      24.13       5.52
H       0.39      24.13      25.32
H       9.46      12.07       9.90
H      10.23      12.06      20.94
H      14.77      24.13       4.61
H       4.92       0.00      26.24
H       4.93      12.07      10.81
H      14.77      12.07      20.03
H       6.46       9.55      23.56
H      13.23       9.55       7.29
H      16.31       2.51      22.71
H       3.39       2.51       8.13
H      13.23      14.58       7.29
H       6.46      14.58      23.56
H       3.39      21.62       8.13
H      16.31      21.62      22.71
H       6.32       8.05      25.51
H      13.38       8.05       5.33
H      16.17       4.02      20.75
H       3.53       4.02      10.09
H      13.38      16.08       5.33
H       6.32      16.08      25.51
H       3.53      20.11      10.09
H      16.17      20.12      20.75
H       2.99       6.01      23.67
H      16.71       6.01       7.18
H      12.84       6.06      22.60
H       6.86       6.06       8.25
H      16.71      18.12       7.18
H       2.99      18.12      23.67
H       6.86      18.07       8.25
H      12.84      18.07      22.60
H       3.16       7.53      21.70
H      16.53       7.53       9.14
H      13.01       4.54      24.57
H       6.69       4.54       6.28
H      16.53      16.60       9.14
H       3.16      16.60      21.70
H       6.69      19.59       6.28
H      13.01      19.59      24.57
H       3.66       5.29      25.78
H      16.04       5.29       5.07
H      13.51       6.77      20.49
H       6.19       6.77      10.35
H      16.04      18.84       5.07
H       3.66      18.84      25.78
H       6.19      17.36      10.35
H      13.51      17.36      20.49
H      10.35      24.13       5.20
H       9.35       0.00      25.64
H       0.50      12.07      10.22
H      19.20      12.07      20.62
H      12.79      24.13       4.95
H       6.91       0.00      25.90
H       2.94      12.07      10.48
H      16.76      12.07      20.37
H      12.36      24.13       0.65
H       7.34       0.00      30.19
H       2.51      12.07      14.77
H      17.19      12.07      16.07
H       9.88      24.13       0.93
H       9.81       0.00      29.92
H       0.04      12.07      14.50
H      19.66      12.07      16.35
H      14.55      24.13       1.54
H       5.15       0.00      29.31
H       4.70      12.07      13.88
H      15.00      12.07      16.96
C       4.87       2.47       0.70
C      14.83       2.48      30.14
C      14.72       9.59      14.72
C       4.98       9.59      16.12
C      14.83      21.66      30.14
C       4.87      21.66       0.70
C       4.98      14.54      16.12
C      14.72      14.54      14.72
C       4.95       3.39      30.37
C      14.74       3.39       0.47
C      14.80       8.68      15.89
C       4.90       8.68      14.95
C      14.74      20.74       0.47
C       4.95      20.74      30.37
C       4.90      15.45      14.95
C      14.80      15.45      15.89
C       5.97       4.35      30.29
C      13.73       4.35       0.56
C      15.81       7.71      15.98
C       3.88       7.71      14.87
C      13.73      19.78       0.56
C       5.97      19.78      30.29
C       3.88      16.42      14.87
C      15.81      16.42      15.98
C       6.04       5.18      29.17
C      13.65       5.18       1.67
C      15.89       6.88      17.09
C       3.80       6.88      13.75
C      13.65      18.95       1.67
C       6.04      18.95      29.17
C       3.80      17.25      13.75
C      15.89      17.25      17.09
C       5.12       5.08      28.11
C      14.58       5.08       2.73
C      14.97       6.99      18.15
C       4.73       6.99      12.69
C      14.58      19.06       2.73
C       5.12      19.06      28.11
C       4.73      17.14      12.69
C      14.97      17.14      18.15
C       4.10       4.10      28.22
C      15.59       4.10       2.63
C      13.95       7.97      18.05
C       5.75       7.97      12.79
C      15.59      20.03       2.63
C       4.10      20.03      28.22
C       5.75      16.16      12.79
C      13.95      16.16      18.05
C       4.02       3.27      29.32
C      15.67       3.27       1.52
C      13.87       8.79      16.94
C       5.83       8.79      13.90
C      15.67      20.86       1.52
C       4.02      20.86      29.32
C       5.83      15.34      13.90
C      13.87      15.34      16.94
C       5.26       5.97      26.98
C      14.44       5.97       3.87
C      15.11       6.09      19.29
C       4.59       6.09      11.56
C      14.44      18.16       3.87
C       5.26      18.16      26.98
C       4.59      18.04      11.56
C      15.11      18.04      19.29
C       1.19      24.13       3.34
C      18.51      24.13      27.50
C      11.03      12.07      12.08
C       8.66      12.07      18.76
C      19.40      24.13       3.37
C       0.30      24.13      27.47
C       9.55      12.07      12.05
C      10.15      12.07      18.79
C      18.65      24.13       2.18
C       1.05      24.13      28.66
C       8.80      12.07      13.24
C      10.90      12.07      17.60
C      17.26      24.13       2.22
C       2.43      24.13      28.63
C       7.42      12.07      13.20
C      12.28      12.07      17.64
C      16.58      24.13       3.45
C       3.12       0.00      27.39
C       6.73      12.07      11.97
C      12.97      12.07      18.87
C      17.34      24.13       4.64
C       2.36      24.13      26.20
C       7.49      12.07      10.78
C      12.21      12.07      20.06
C      18.73      24.13       4.60
C       0.97      24.13      26.24
C       8.88      12.07      10.82
C      10.82      12.07      20.03
C      15.13      24.13       3.57
C       4.57       0.00      27.27
C       5.28      12.07      11.85
C      14.42      12.07      19.00
C       4.92       9.57      21.35
C      14.77       9.57       9.49
C      14.77       2.50      24.91
C       4.93       2.50       5.93
C      14.77      14.57       9.49
C       4.92      14.57      21.35
C       4.93      21.63       5.93
C      14.77      21.63      24.91
C       4.83       8.63      22.51
C      14.87       8.63       8.34
C      14.67       3.43      23.76
C       5.02       3.43       7.08
C      14.87      15.50       8.34
C       4.83      15.50      22.51
C       5.02      20.70       7.08
C      14.67      20.70      23.76
C       5.71       8.77      23.59
C      13.99       8.77       7.25
C      15.56       3.30      22.67
C       4.14       3.30       8.17
C      13.99      15.36       7.25
C       5.71      15.36      23.59
C       4.14      20.83       8.17
C      15.56      20.83      22.67
C       5.62       7.92      24.68
C      14.08       7.92       6.16
C      15.47       4.14      21.58
C       4.23       4.14       9.26
C      14.08      16.21       6.16
C       5.62      16.21      24.68
C       4.23      19.99       9.26
C      15.47      19.99      21.58
C       4.64       6.91      24.74
C      15.06       6.91       6.11
C      14.49       5.16      21.53
C       5.21       5.16       9.32
C      15.06      17.22       6.11
C       4.64      17.22      24.74
C       5.21      18.97       9.32
C      14.49      18.97      21.53
C       3.76       6.78      23.64
C      15.94       6.78       7.20
C      13.61       5.28      22.62
C       6.09       5.28       8.22
C      15.94      17.35       7.20
C       3.76      17.35      23.64
C       6.09      18.85       8.22
C      13.61      18.85      22.62
C       3.85       7.63      22.54
C      15.85       7.63       8.30
C      13.70       4.44      23.72
C       6.00       4.44       7.12
C      15.85      16.50       8.30
C       3.85      16.50      22.54
C       6.00      19.69       7.12
C      13.70      19.69      23.72
C       4.49       6.00      25.87
C      15.21       6.00       4.98
C      14.33       6.06      20.40
C       5.36       6.06      10.44
C      15.21      18.13       4.98
C       4.49      18.13      25.87
C       5.36      18.07      10.44
C      14.33      18.07      20.40
C       8.46       0.00       3.20
C      11.24       0.00      27.64
C      18.31      12.07      12.22
C       1.39      12.07      18.63
C       9.96       0.00       3.07
C       9.74       0.00      27.77
C       0.11      12.07      12.35
C      19.59      12.07      18.49
C      10.79      24.13       4.20
C       8.91      24.13      26.64
C       0.94      12.07      11.22
C      18.76      12.07      19.62
C      12.17      24.13       4.05
C       7.53       0.00      26.79
C       2.32      12.07      11.37
C      17.38      12.07      19.47
C      12.77      24.13       2.77
C       6.93       0.00      28.07
C       2.92      12.07      12.65
C      16.78      12.07      18.20
C      11.92      24.13       1.65
C       7.78       0.00      29.19
C       2.07      12.07      13.77
C      17.63      12.07      17.07
C      10.53      24.13       1.80
C       9.16       0.00      29.04
C       0.69      12.07      13.62
C      19.01      12.07      17.22
C      14.21      24.13       2.58
C       5.48       0.00      28.27
C       4.36      12.07      12.84
C      15.33      12.07      18.00
O       4.87       0.00       3.33
O      14.83       0.00      27.51
O      14.72      12.07      12.09
O       4.98      12.07      18.75
O       5.67       2.68       1.68
O      14.03       2.68      29.17
O      15.52       9.38      13.75
O       4.18       9.38      17.10
O      14.03      21.45      29.17
O       5.67      21.45       1.68
O       4.18      14.75      17.10
O      15.52      14.75      13.75
O       4.00       1.54       0.63
O      15.70       1.54      30.21
O      13.85      10.53      14.79
O       5.85      10.53      16.05
O      15.70      22.59      30.21
O       4.00      22.59       0.63
O       5.85      13.60      16.05
O      13.85      13.61      14.79
O       1.75      24.13       2.19
O      17.95      24.13      28.65
O      11.60      12.07      13.23
O       8.10      12.07      17.61
O       1.79      24.13       4.47
O      17.91      24.13      26.37
O      11.64      12.07      10.95
O       8.06      12.07      19.89
O       5.80      10.49      21.44
O      13.90      10.49       9.41
O      15.65       1.58      24.83
O       4.05       1.58       6.01
O      13.90      13.64       9.41
O       5.80      13.64      21.44
O       4.05      22.55       6.01
O      15.65      22.55      24.83
O       4.12       9.38      20.37
O      15.57       9.38      10.48
O      13.97       2.69      25.90
O       5.73       2.69       4.95
O      15.57      14.75      10.47
O       4.12      14.75      20.37
O       5.73      21.44       4.95
O      13.97      21.44      25.90
O       7.90       1.14       3.25
O      11.80       1.14      27.60
O      17.75      10.92      12.18
O       1.95      10.92      18.67
O      11.80      22.99      27.60
O       7.90      22.99       3.25
O       1.95      13.21      18.67
O      17.75      13.21      12.18
