62

Al       3.21       4.83       7.46
Al       6.52       4.89       7.47
H       4.84       6.27       8.54
H       8.13       3.26       6.81
H       6.36       6.18      11.41
H       6.87       5.98       3.55
H       2.86       4.45       3.34
H       2.92       4.70       0.85
H       9.98       3.85      11.56
H       9.89       3.91      14.06
H       6.59       7.76       5.38
H       5.20       9.06       3.84
H       3.31       2.12       5.61
H       1.94       0.94       3.94
H       3.26       7.39       0.07
H       5.79       7.35      13.43
H      10.48       6.04      14.84
H       7.98       6.53       1.52
C       8.25       7.25       7.26
C       8.14       4.92       9.87
C       4.83       2.45       7.63
C       4.91       4.98       5.05
C       8.16       5.00      11.35
C       4.87       5.21       3.58
C       7.15       5.71      12.00
C       7.16       5.85      13.40
C       6.00       5.73       2.95
C       6.03       5.93       1.56
C       3.73       4.87       2.83
C       3.77       5.02       1.45
C       9.19       4.39      12.08
C       9.14       4.45      13.47
C       8.14       5.16      14.15
C       4.90       5.53       0.78
C       8.26       8.76       7.29
C       7.40       9.49       6.42
C       9.04       9.43       8.21
C       6.59       8.84       5.44
C       5.81       9.58       4.58
C       4.86       0.95       7.53
C       5.67       0.20       8.37
C       4.10       0.30       6.51
C       3.31       1.03       5.58
C       2.55       0.37       4.64
N       6.18       6.63      14.02
N       7.12       6.54       0.98
N       6.38       0.87       9.47
N       9.90       8.64       9.14
O       9.35       6.66       7.07
O       7.00       4.79       9.31
O       5.94       3.03       7.43
O       3.83       4.64       5.64
O       3.70       2.99       7.80
O       6.04       5.13       5.63
O       7.12       6.71       7.46
O       9.26       5.01       9.27
O       4.85       5.46       8.00
O       8.17       4.22       6.92
O       5.78       1.77      10.07
O       7.53       0.47       9.72
O      11.01       8.31       8.73
O       9.40       8.36      10.23
