122

Zn      10.84       7.10       9.85
Zn      11.81       9.74       9.88
H      12.12       6.41       1.28
H      12.19      14.59       8.41
H      11.34       4.56      11.22
H      11.28      12.26       8.51
H       8.56       0.98      11.95
H      14.09      15.85       7.68
H      14.78      15.53      11.92
H       7.87       1.30       7.70
H       6.86       7.94       9.32
H      15.78       8.95       9.57
H       7.95      12.05       9.60
H      10.54      10.43      18.44
H      14.70       4.84       9.24
H      17.07       4.23       8.77
H       5.56      12.72       9.40
H       5.53       6.66       8.62
H      17.08      10.34       9.17
H      12.14      10.42       5.61
H      10.55       6.40      14.11
H      12.15      10.43       3.11
H      10.51       6.40      16.61
H      10.58       6.42       3.09
H      12.01       6.39      18.46
H      12.06      10.42      16.61
H      10.58       6.43       5.60
H      12.04      10.42      14.11
H       4.51       5.02       6.37
H       5.18       2.70       5.79
H       5.02       0.90       7.51
H       4.23       1.44       9.81
H       3.53       3.76      10.36
H      17.78      12.40       7.29
H      17.03      14.77       7.32
H      10.64      10.45       1.26
H      17.45      16.18       9.33
H      18.61      15.20      11.31
H      19.36      12.84      11.27
H       8.50       5.78       8.49
H      14.22      11.05      11.14
H       7.43       3.52       8.43
H      15.29      13.32      11.14
H      10.44       2.23      11.26
C      11.30       8.41      12.47
C      10.87       7.28      16.07
C      11.37       8.43       2.93
C      11.29       8.41      16.79
C      10.93       7.30       3.64
C      11.71       9.54      16.07
C      10.92       7.29       5.03
C      11.71       9.54      14.68
C      11.35       8.42       5.75
C      11.30       8.41      13.97
C      11.78       7.29       0.73
C      11.35       8.41       7.24
C      10.88       9.55      18.98
C      11.66       7.28      19.00
C      10.99       9.56       0.72
C      13.71       7.35       9.75
C       8.94       9.50       9.69
C      11.27       8.41      18.27
C      11.38       8.43       1.45
C       8.88       4.96       9.09
C      13.81      11.87      10.56
C       8.31       3.69       9.05
C       4.49       6.93       8.77
C      14.39      13.13      10.56
C       8.85       2.67       9.84
C      13.82      14.16       9.79
C       9.96       2.99      10.65
C      12.69      13.83       9.02
C      10.47       4.27      10.63
C      12.17      12.55       9.07
C       8.23       0.54      11.01
C      14.42      16.29       8.62
C      14.84      16.10      10.99
C      18.12      10.04       9.17
C       7.82       0.73       8.63
C      14.36      15.53       9.80
C       8.29       1.30       9.83
C      15.13       6.94       9.46
C       7.52       9.94       9.49
C      16.80       5.27       8.96
C       5.83      11.67       9.38
C      15.48       5.60       9.22
C       7.16      11.30       9.49
C      16.10       7.93       9.39
C       3.54       5.94       8.71
C       6.54       8.98       9.31
C      17.45       7.63       9.13
C       5.18       9.31       9.17
C      17.82       6.26       8.94
C       4.81      10.69       9.26
C      18.46       8.66       9.10
C       4.16       8.30       9.01
C       3.97       4.55       8.40
C       4.45       4.23       7.12
C       4.83       2.93       6.80
C      19.07      11.04       9.23
C       4.74       1.92       7.76
C       4.29       2.22       9.05
C       3.90       3.52       9.36
C      18.63      12.46       9.27
C      17.96      13.01       8.17
C      17.54      14.35       8.19
C      17.77      15.14       9.31
C      18.43      14.59      10.42
C      18.85      13.26      10.40
C      11.79       9.55       5.04
C      10.88       7.27      14.67
C      11.79       9.56       3.65
N       9.95       5.24       9.86
N      12.71      11.59       9.83
O      11.02       7.32      11.88
O      11.80       9.45       7.83
O      11.59       9.51      11.89
O      10.89       7.37       7.81
O      12.82       6.45       9.74
O       9.85      10.39       9.69
O      13.52       8.59       9.98
O       9.12       8.25       9.85
