58

Al       1.87      11.60       6.80
H       3.35       9.60       3.40
H       2.78       7.56       2.08
H       3.47       5.11       5.55
H       4.05      13.85      13.05
H       3.55       9.72      10.33
H       3.37       9.60      12.82
H       2.97      16.01       1.92
H       4.87      15.49       6.47
H       4.82      17.75       5.39
H       1.93       7.76       7.99
H       2.05      14.58       9.43
H       4.56      12.49       2.70
C       4.00      13.21       5.59
C       3.98       9.77       6.00
C       4.01      11.85       8.79
C       2.32       3.97       0.98
C       2.77       4.99       2.96
C       2.44       2.74       2.89
C       3.38       8.61       3.87
C       3.05       7.48       3.13
C       3.07       6.21       3.74
C       3.42       6.10       5.09
C       3.75       7.24       5.82
C       3.73       8.51       5.22
C       3.89      12.95      12.46
C       3.98      13.01      11.07
C       3.87      11.85      10.29
C       3.63      10.62      10.93
C       3.53      10.56      12.32
C       3.68      11.72      13.09
C       3.36      15.90       2.93
C       3.32      14.66       3.56
C       3.89      14.50       4.84
C       4.43      15.63       5.48
C       4.41      16.88       4.88
C       3.89      17.02       3.58
S       4.26       6.96       7.51
S       4.40      14.61      10.39
S       2.55      13.38       2.54
N       2.56       5.11       1.64
N       2.76       3.82       3.63
N       2.20       2.76       1.57
O       5.05      11.29       8.33
O       5.05      13.07       6.30
O       5.04      10.41       5.75
O       3.05      12.37       8.14
O       3.05      10.09       6.81
O       3.05      12.37       5.48
O       3.13       7.19       8.41
O       4.88       5.67       7.58
O       5.24       8.12       7.75
O       3.24      15.22       9.76
O       5.05      15.37      11.42
O       5.35      14.24       9.22
O       1.46      12.78       3.32
O       2.17      13.97       1.29
O       3.58      12.25       2.35
