244

Zn       7.47       8.91      15.48
Zn      26.70      10.70      18.17
Zn       8.89      11.68      15.62
Zn      25.23      11.62      15.60
Zn      18.23       7.22       8.73
Zn      16.78       4.31       8.70
Zn      18.46       5.49       6.15
Zn      19.88       4.41       8.86
Zn      15.92      16.24      22.37
Zn      17.37      15.14      25.06
Zn      15.69      17.94      24.95
Zn      14.27      15.01      24.90
Zn      17.44       4.73      31.84
Zn      14.18       4.71      31.80
Zn      24.53      19.63      31.68
Zn      18.16      17.61       1.96
H      13.21       5.51      10.98
H      18.92      14.67      19.53
H      15.95      19.61      19.47
H      28.97      18.39      11.32
H      18.25      14.23       4.78
H       4.59       2.67       1.34
H      13.71       8.28      29.25
H      21.02       3.61      29.44
C       7.29       7.77      18.17
C       9.61      12.20      18.41
C      10.04       9.40      14.18
C      26.84      13.68      14.27
C      24.54       9.25      14.01
C      24.11      12.05      18.26
C      15.67       6.65      10.06
C      16.01       3.90       5.90
C      18.35       8.42       6.06
C      21.00       4.05       6.18
C      20.66       6.82      10.32
C      18.32       2.29      10.14
C      18.48      14.81      22.36
C      18.13      17.56      26.53
C      15.81      19.16      22.29
C      13.14      17.36      26.27
C      13.50      14.62      22.10
C      15.84      13.01      26.34
C      15.81       6.76      30.48
C      22.02      19.99      30.22
C      27.12      20.11      30.40
C      18.33      14.69       1.96
C      12.13       1.46       2.21
C       7.03       1.34       2.03
C      23.54       8.63      13.06
C      21.65       7.45      11.27
C      22.44       9.35      12.58
C      22.78       6.75      11.71
C      21.50       8.76      11.75
C      23.68       7.31      12.62
C      10.61      12.82      19.36
C      12.50      14.00      21.16
C      11.71      13.54      18.89
C      11.37      13.32      21.63
C      12.66      14.07      19.77
C      10.47      12.70      20.75
C      12.31       9.51      12.96
C      13.42       6.54      11.26
C      11.14       8.87      13.38
C      14.57       7.20      10.87
C      12.60       7.39      12.04
C      13.15       8.67      12.21
C      22.87      12.59      20.44
C      19.69      14.26      20.18
C      23.01      12.58      19.06
C      19.58      14.27      21.56
C      20.90      13.66      19.78
C      21.67      13.21      20.87
C       7.22       6.43      20.36
C       7.34       2.84      20.11
C       7.27       6.55      18.97
C       7.27       2.74      21.49
C       7.31       4.19      19.70
C       7.23       5.08      20.79
C      25.76      15.58      12.91
C      27.95      18.05      11.47
C      26.84      14.90      13.46
C      26.85      18.71      10.94
C      27.54      16.91      12.20
C      26.14      16.73      12.19
C      15.01       3.27       4.95
C      13.12       2.08       3.16
C      15.17       3.34       3.56
C      12.98       1.97       4.55
C      14.23       2.80       2.69
C      13.88       2.59       5.42
C      18.41       9.77       3.88
C      18.28      13.36       4.13
C      18.34       9.64       5.26
C      18.33      13.46       2.75
C      18.30      12.01       4.54
C      18.37      11.11       3.45
C       3.67       2.90       5.80
C       4.79       2.50       2.40
C       2.51       3.52       5.37
C       5.94       1.87       2.85
C       3.96       2.86       3.48
C       4.51       2.51       4.73
C      19.13      18.18      27.48
C      21.02      19.37      29.27
C      18.97      19.49      27.96
C      21.16      18.04      28.83
C      19.92      20.08      28.79
C      20.26      17.48      27.92
C      16.92      11.10      27.69
C      14.73       8.64      29.13
C      15.84      11.79      27.15
C      15.82       7.98      29.67
C      15.13       9.78      28.42
C      16.53       9.97      28.43
C      30.47      17.25      27.48
C      29.36      20.22      29.19
C      31.64      17.89      27.08
C      28.22      19.56      29.59
C      30.19      19.37      28.43
C      29.64      18.08      28.26
S      11.08       7.22      12.83
S      14.68       8.84      11.44
S      21.66      13.34      18.26
S      20.94      13.55      22.38
S       7.34       5.00      18.18
S       7.17       4.28      22.30
S      28.35      15.69      13.10
S      25.32      17.97      11.32
S      18.24      11.19       6.05
S      18.39      11.92       1.93
S       2.43       3.64       3.64
S       6.02       1.71       4.58
S      14.32      11.02      27.53
S      17.35       8.75      29.33
S      31.72      19.53      27.65
S      28.13      17.90      29.06
N      22.25      10.78      12.94
N      23.08       5.38      11.20
N      20.29       9.56      11.39
N       5.19       6.45      13.12
N      11.90      13.78      17.44
N      11.08      13.25      23.08
N      13.87      14.72      19.18
N       9.37      11.90      21.34
N      16.38       3.98       2.97
N      11.88       1.16       5.14
N      14.42       3.04       1.23
N      13.58       2.52       6.88
N      17.77      20.29      27.60
N      22.26      17.18      29.34
N      11.18       3.86      29.15
N      20.56      16.12      27.41
O       7.28      10.72      16.21
O       7.20       7.60      16.90
O       8.45      12.00      18.89
O      10.05      10.65      14.44
O       7.40       8.88      18.79
O       9.15       8.55      14.55
O      10.03      11.94      17.25
O       8.38      13.35      14.78
O      24.11      10.22      14.71
O      25.73      13.06      14.38
O       6.11       8.74      14.02
O      25.01      11.38      18.86
O      24.06      12.30      17.00
O      18.33       5.36       8.11
O      16.70       7.40       9.92
O      16.04       3.41       7.07
O      18.57       7.31       5.46
O      15.49       5.49       9.56
O      18.13       8.57       7.32
O      16.70       4.84       5.43
O      19.97       4.44       5.52
O      20.60       5.56      10.33
O      21.17       4.08       7.44
O      19.97       7.63       9.62
O      17.18       2.81       9.87
O      19.46       2.73       9.78
O      15.81      16.09      24.32
O      17.45      15.22      21.71
O      18.09      16.29      26.53
O      15.61      19.29      23.55
O      18.66      14.83      23.63
O      16.02      18.06      21.67
O      17.44      18.36      25.84
O      14.17      18.12      26.16
O      13.55      14.12      23.26
O      12.98      16.20      25.75
O      14.18      15.58      21.64
O      16.97      13.46      25.96
O      14.69      13.51      26.08
O      24.35      21.45      32.42
O      16.93       6.40      30.98
O      21.59      20.96      30.91
O      26.21      19.28      30.76
O      14.68       6.17      30.60
O      18.62       3.71      30.66
O      23.18      19.48      30.22
O      18.26      14.54       0.68
O      10.97       1.25       2.68
O      18.41      15.79       2.60
O      12.55       1.20       1.05
O       6.99       1.59       0.77
O       7.93       0.67       2.64
O      23.05      11.57      12.45
O      21.29      11.03      13.67
O      23.42       5.30      10.02
O      22.99       4.47      12.02
O      19.23       9.18      11.88
O      20.49      10.53      10.66
O       5.11       6.09      14.30
O       6.05       6.14      12.30
O      11.11      14.55      16.90
O      12.87      13.21      16.92
O      10.74      14.30      23.62
O      11.17      12.13      23.60
O      14.93      14.12      19.33
O      13.68      15.77      18.57
O       9.45      10.68      21.20
O      28.10      12.53      21.96
O      17.44       3.37       3.11
O      16.19       5.03       2.36
O      20.50      17.59       4.99
O      11.02       1.80       5.75
O      13.62       3.81       0.69
O      15.38       2.46       0.71
O      13.22       3.58       7.41
O      13.67       1.41       7.40
O      16.70      19.92      28.10
O       9.42       3.61      26.87
O      22.18      16.84      30.52
O      23.12      16.87      28.52
O      11.98       4.66      28.66
O      10.22       4.12      29.88
O      20.91      16.04      26.23
O      20.47      15.20      28.23
F      12.62      10.78      13.25
F      23.76      12.08      21.30
F       7.15       7.46      21.21
F      24.48      15.20      13.05
F      18.48       8.74       3.02
F       3.99       2.66       7.08
F      18.20      11.48      27.55
F      30.16      15.98      27.19
