58

Zn       6.03       5.28       5.63
Zn       3.33       5.19       5.52
H       2.50       9.43       5.24
H       2.71       0.95       5.17
H       6.91       1.04       6.01
H       6.73       9.52       6.00
H       1.19       3.63       6.92
H       1.19       6.88       4.35
H       8.17       3.66       6.94
H       8.18       6.96       4.43
H       2.46       2.36       0.00
H       4.09       1.64      10.61
H       3.28       0.89       8.35
H       2.63      -0.16       9.63
H       1.59       1.07       8.89
H       0.95       3.87      10.85
H       1.60       5.52      11.06
H       0.45       6.33       2.04
H       8.84       5.79       0.81
H      -0.06       4.62       1.98
H       5.84       6.30       9.55
H       6.57       4.66       1.86
C       4.66       7.84       5.61
C       4.76       2.63       5.56
C       4.69       5.11       2.97
C       4.57       5.05       8.18
C       3.76       4.10      10.39
C       3.68       4.75       0.67
C       4.53       4.97       9.66
C       4.75       4.81       1.52
C       3.41      10.01       5.39
C       3.63       0.41       5.37
C       4.80       1.14       5.59
C       4.62       9.33       5.61
C       6.01       0.46       5.83
C       5.80      10.06       5.83
C       0.60       4.35       6.35
C       0.60       6.18       4.93
C       8.77       4.38       6.38
C       8.77       6.21       4.97
C       3.05       1.84      10.29
C       2.61       0.86       9.23
C       1.31       5.19       0.42
C       0.18       5.50       1.37
N       8.09       5.30       5.68
N       1.28       5.24       5.61
O       5.79       7.29       5.42
O       5.83       3.26       5.89
O       3.56       7.22       5.81
O       3.66       3.17       5.21
O       5.83       5.00       3.57
O       5.66       5.53       7.69
O       3.60       5.46       3.53
O       3.54       4.73       7.51
O       2.99       3.17       9.72
O       2.41       4.65       1.19
O       5.30       5.92      10.28
O       6.01       4.57       1.05
