117

Zn       9.93      11.69       9.41
Zn      11.80      11.13       6.95
Zn       9.21       9.34       7.52
Zn      11.80       9.03       9.42
H      13.47       5.49       1.11
H       9.39      15.39       8.06
H      11.32       8.69       3.25
H       5.13       5.23       8.20
H       3.85       3.19       8.20
H      13.67      15.19       8.09
H      11.83       5.09       9.25
H      15.23      16.13       8.94
H      17.35      17.29       9.40
H       8.00      11.41       3.25
H       8.85      16.34      15.18
H       7.76      11.14       0.78
H      14.03      10.20      15.63
H      13.40       9.62      13.28
H      10.54      12.79      13.24
H      12.25       7.23       2.31
H       6.67      13.81      12.62
H       5.15      14.02      11.70
H       8.01      14.22      10.60
H       6.57      14.25       9.58
H       5.78      16.34      10.78
H       7.41      16.58      10.11
H      15.12       8.85       5.30
H       7.21      16.27      11.84
H       6.55       8.32       7.17
H       5.37       7.03       7.26
H       7.98       6.86       5.66
H       6.70       5.64       5.66
H       5.09       7.36       4.66
H       6.49       7.02       3.61
H       6.45       8.51       4.57
H      11.32      14.78      13.08
H       4.34       9.73       5.09
H      17.51       9.03       4.62
H      16.13      10.11       9.28
H      17.42      11.26      10.33
H       3.68      12.27      11.77
H       6.07      10.49       6.66
C      14.07       9.44       7.70
C      10.28      14.77      15.03
C       9.50      15.66      15.74
C       7.18      10.96       8.98
C       9.35       9.68       0.62
C      10.35       8.93       1.31
C       8.52      10.58       1.33
C       8.66      10.74       2.69
C      10.53       9.18       2.69
C      17.20       9.28       5.63
C      15.51       9.47       7.34
C      12.95      10.47      13.79
C       5.33      11.79      10.47
C       3.96      11.82      10.82
C      18.46      11.25      10.01
C      11.40      13.70       7.86
C       3.35      10.68       8.76
C       4.72      10.71       8.36
C      17.80      10.11       7.87
C      18.18       9.77       6.54
C       4.08       9.95       6.13
C       5.04      10.37       7.00
C      11.35      12.30      13.76
C      16.46       9.91       8.26
C      15.89       9.17       6.01
C       5.73      11.18       9.27
C      10.39      17.29       8.20
C      10.09       6.80       8.56
C      11.54      15.17       8.03
C      10.90       4.57       9.05
C      16.46      17.86       9.13
C      15.27      17.21       8.86
C       8.47       3.24       8.55
C      11.73      12.70      15.06
C       8.52       4.68       8.50
C      12.85      17.20       8.33
C       6.01       3.26       8.28
C       6.07       4.67       8.27
C       7.26       5.36       8.30
C       9.90      10.27       4.84
C      12.77      15.81       8.15
C      10.34      15.92       8.11
C       9.78       5.33       8.71
C      11.51      10.86      11.75
C      12.70      11.90      15.75
C      11.95      11.22      13.13
C       9.69      10.06       3.37
C      13.30      10.80      15.08
C       6.21      13.69      11.63
C       6.95      14.51      10.59
C       6.82      16.01      10.85
C       6.43       7.24       7.09
C       6.89       6.72       5.73
C       6.19       7.45       4.58
C      10.34      15.00      13.56
C      11.13      13.84      15.72
C      11.12       7.93       0.58
C      12.06       7.09       1.25
C      12.74       6.11       0.58
O      10.72      10.26       8.35
O      10.98      10.86       5.17
O      11.93       9.76      11.26
O       8.99       9.83       5.61
O      10.75      11.72      11.17
O       6.25      12.26      11.37
O       7.25       6.72       8.17
O       9.43      15.50      12.90
O      10.26      13.22       8.21
O      10.84       7.29       9.48
O      13.28       9.83       6.77
O       7.51       9.88       8.38
O      13.71       9.06       8.87
O       7.99      11.85       9.39
O      12.35      13.00       7.37
O       9.69       7.42       7.52
