120

Cu       5.70       9.57       7.82
Cu       5.12       9.03      10.69
Cu       6.02       6.66       8.45
Cu       9.23       2.05      19.34
Cu       9.54       2.50      22.29
Cu       8.53       4.84      20.06
Cu      13.15      13.22       3.78
Cu      12.60      13.74       0.89
Cu      13.51      16.10       3.13
Cu       1.78      20.84      15.45
Cu       2.13      20.37      12.52
Cu       1.17      18.01      14.75
H       3.74      11.99       7.22
H       3.53      11.87      11.54
H       7.52       5.62       5.61
H       7.75       9.94       5.45
H       5.54       7.28      13.27
H       5.46       4.17      10.27
H      11.38      22.45      18.81
H      11.14      22.33      23.14
H       6.94       5.83      17.25
H       7.32       1.53      16.87
H       9.23       4.09       1.69
H       8.97       7.32      21.92
H      11.18      10.82       4.38
H      10.99      10.91       0.05
H       0.07      17.16       5.99
H       0.27      12.83       6.16
H      12.92      15.55      21.51
H      13.05      18.59       1.29
H       3.79       0.45      15.98
H       3.64       0.52      11.65
H      14.51      17.02      17.57
H      14.77      21.33      17.89
H       1.67      18.67       9.92
H       1.69      15.53      12.90
C       3.83      11.75       8.27
C       3.28      12.42       9.37
C       3.73      11.70      10.49
C       7.43       6.69       5.76
C       7.97       7.75       5.02
C       7.56       8.91       5.70
C       5.53       6.69      12.36
C       5.47       5.30      12.21
C       5.46       5.10      10.82
C      11.19      22.64      19.87
C      11.61      21.89      20.98
C      11.05      22.56      22.08
C       7.18       4.78      17.35
C       6.79       3.69      16.55
C       7.36       2.57      17.17
C       9.19       4.69       0.79
C       9.20       6.09       0.65
C       8.99       6.39      22.47
C      11.28      11.05       3.33
C      10.74      10.36       2.23
C      11.19      11.08       1.11
C      14.89      16.09       5.83
C       0.51      15.03       6.58
C       0.09      13.87       5.91
C      12.91      16.14      22.41
C      12.89      17.54      22.56
C      13.04      17.66       0.74
C       3.62       0.25      14.93
C       4.07       0.98      13.81
C       3.53       0.30      12.70
C      14.72      18.07      17.46
C      14.30      19.16      18.24
C      -0.07      20.29      17.60
C       1.65      18.07      10.83
C       1.69      16.67      10.97
C       1.68      16.46      12.35
C      12.37      20.66      20.86
C      12.91      18.56      21.53
C      13.53      19.27      19.47
C       2.47      13.62       9.23
C       1.27      14.96       7.82
C       1.76      15.66       9.92
C       4.85       2.20      13.93
C       6.01       3.58      15.32
C       5.44       4.28      13.25
C       9.93       9.16       2.37
C       8.74       7.82       3.78
C       9.24       7.11       1.69
N       4.49      10.67      10.08
N       4.57      10.72       8.70
N       6.81       8.56       6.75
N       6.74       7.18       6.81
N       5.52       6.29      10.19
N       5.53       7.29      11.15
N      10.30       0.93      21.66
N      10.37       0.96      20.28
N       8.06       2.96      18.25
N       7.93       4.33      18.38
N       8.96       5.21      21.83
N       9.00       4.20      22.78
N      11.95      12.11       1.51
N      12.02      12.08       2.89
N      14.26      14.21       4.85
N      14.20      15.59       4.78
N      13.05      16.47       1.38
N      13.06      15.47       0.42
N       2.87      21.95      13.13
N       2.92      21.94      14.52
N       0.64      19.90      16.53
N       0.55      18.53      16.42
N       1.62      17.64      12.99
N       1.63      18.65      12.04
N      12.39      19.77      21.86
N      13.44      18.24      20.33
N      12.97      20.48      19.67
N       1.93      13.80       8.01
N       1.24      15.97       8.71
N       2.33      14.48      10.26
N       5.44       2.38      15.13
N       5.96       4.61      14.45
N       4.90       3.09      12.92
N       9.39       8.98       3.59
N       8.72       6.80       2.90
N       9.81       8.29       1.35
