154

Zn       3.97       7.83       8.81
Zn      -2.06      27.68       9.32
Zn      19.91      29.08      11.53
Zn      18.69      27.97       8.81
Zn      19.91       9.62       0.81
Zn       3.97      23.28      17.32
Zn      18.69      12.52       0.30
Zn      -2.06      12.24       0.81
H      27.09      17.89      18.54
H       4.05      19.93      14.84
H      27.09       9.67      14.01
H       4.05      11.71      10.31
H      -1.52      15.78       2.93
H      18.15      16.20       2.16
H      -1.52      24.00       7.46
H      18.15      24.43       6.69
H      16.70       8.03       2.93
H      15.02      11.92       2.16
H       8.87       5.53       7.46
H       7.18       9.42       6.69
H       7.18      24.22      14.84
H       8.87      25.65      18.54
H      15.02      26.71      10.31
H      16.70      28.14      14.01
C       6.66       7.04       7.87
C      22.24      27.38      12.25
C      27.51       9.26      11.37
C      17.23      27.86      11.37
C       1.64       7.53       6.99
C      20.26      25.65       7.87
C       3.63      20.35      17.48
C       1.64      24.98      16.61
C      17.23      10.41       1.75
C      -3.63      14.56       1.75
C      22.24       9.93       2.63
C       6.66      24.49      17.48
C       0.80       8.14       5.87
C      23.08       9.31       3.75
C      23.56       7.46       5.33
C       0.33       9.99       4.29
C      22.78       8.03       4.29
C       1.11       9.42       5.33
C      23.08      26.76      13.37
C       0.80      25.59      15.49
C      22.78      26.99      14.74
C       1.11      25.37      14.12
C      23.56      26.42      15.77
C       0.33      25.94      13.08
C       3.63      19.04      16.76
C      27.27      17.86      17.47
C      27.27      16.64      16.80
C      27.51      16.57      15.40
C       3.87      17.79      14.72
C       3.87      19.01      15.38
C      27.51      15.34      14.72
C      27.51      14.27      14.13
C      27.51      13.04      13.46
C      27.27      11.81      14.14
C      27.27      10.60      13.47
C      27.51      10.56      12.09
C       3.87      11.75      11.38
C       3.87      12.96      12.06
C      -3.63      15.87       2.47
C      -2.44      16.36       3.02
C      -2.44      17.57       3.69
C      -3.63      18.34       3.84
C      19.07      17.81       3.26
C      19.07      16.59       2.59
C      20.26      19.57       4.51
C      20.26      20.64       5.10
C      20.26      21.87       5.78
C      -2.44      22.40       6.35
C      -2.44      23.61       7.03
C      20.26      24.34       7.15
C      19.07      23.85       6.59
C      19.07      22.64       5.92
C      15.98      10.01       2.47
C      15.87       8.73       3.02
C      14.72       8.36       3.69
C      13.62       9.26       3.84
C      13.77      10.56       3.26
C      14.92      10.93       2.59
C      12.45       8.89       4.52
C      11.43       8.56       5.10
C      10.26       8.19       5.78
C      10.12       6.90       6.35
C       8.96       6.53       7.03
C       7.90       7.44       7.15
C       8.01       8.72       6.59
C       9.17       9.09       5.93
C       7.90      24.89      16.76
C       8.01      24.67      15.38
C       9.17      25.04      14.72
C      10.26      25.64      15.40
C      10.12      25.85      16.80
C       8.96      25.48      17.47
C      11.43      26.02      14.72
C      12.45      26.34      14.13
C      13.62      26.72      13.45
C      13.77      26.51      12.06
C      14.92      26.88      11.38
C      15.98      27.47      12.09
C      15.87      27.69      13.47
C      14.71      27.32      14.14
Br      23.01       5.74       5.94
Br       0.87      11.71       3.68
Br      21.31       6.99       3.68
Br       2.58      10.46       5.94
Br      21.31      28.06      15.29
Br       2.58      24.30      13.56
Br      23.01      26.82      17.55
Br       0.87      25.54      11.30
Cl       4.17      17.76      13.02
Cl      26.97      15.19      17.68
Cl       4.16      14.41      11.18
Cl      26.97      11.85      15.84
Cl      17.60      18.70       3.41
Cl      -0.97      18.17       4.37
Cl      17.60      22.04       5.25
Cl      -0.97      21.51       6.21
Cl      12.48      11.69       3.41
Cl      14.60       6.78       4.37
Cl       9.29      10.67       5.25
Cl      11.41       5.77       6.21
Cl      11.41      26.57      17.68
Cl       9.29      24.77      13.02
Cl      14.59      27.59      15.83
Cl      12.48      25.79      11.18
O      20.26      28.83       9.62
O       5.74       7.93       7.96
O      -1.31      27.14      11.05
O      27.26       8.21      12.07
O       6.61       5.85       8.32
O       3.88       9.29      10.12
O      21.25      28.10      12.58
O      18.14      28.42      12.07
O      25.19       6.38       7.42
O      17.27      27.62      10.12
O       2.63       8.19       7.42
O      -2.51      26.05       8.32
O      19.14      26.25       7.96
O       3.63      23.53      19.24
O      27.26      20.31      18.74
O       2.63      24.26      16.27
O      17.27      11.60       1.29
O       3.88      21.39      16.79
O      18.14       9.53       1.66
O      25.19      25.22      17.80
O      19.14      14.15       1.29
O      -1.31      11.07       2.20
O      -2.51      13.95       1.66
O      21.25       9.26       2.20
O       5.74      23.94      16.79
O       6.61      24.74      18.74
