280

Mn       7.86      14.12      16.24
Mn      10.89       2.77       8.12
Mn       3.17       6.32       2.37
Mn      15.58      18.41      11.02
Mn      23.85      16.37      13.87
Mn      11.43       4.28       5.22
H      20.76       7.33      12.10
H      14.52       8.88      13.21
H       6.25      15.37       4.14
H      12.50      13.82       3.03
H      19.31       8.28      12.55
H      15.98       8.14      12.45
H       7.71      14.41       3.69
H      11.04      14.55       3.79
H      21.30       8.95       9.43
H      13.98      10.88      10.81
H       5.71      13.74       6.81
H      13.03      11.82       5.43
H      20.33       7.86       8.38
H      14.95      12.22      11.51
H       6.68      14.84       7.86
H      12.07      10.47       4.73
H      17.88       6.82      10.95
H      17.40      10.13      13.32
H       9.13      15.87       5.29
H       9.61      12.57       2.92
H      19.39       5.88      10.70
H      15.89      10.67      14.13
H       7.63      16.82       5.53
H      11.12      12.03       2.11
H      18.24       9.06       9.05
H      17.05      11.20      10.58
H       8.78      13.64       7.19
H       9.97      11.49       5.65
H      19.24      10.16      10.06
H      16.04       9.90       9.87
H       7.78      12.53       6.18
H      10.97      12.80       6.37
H      20.79       8.21      14.31
H      14.49       6.50      13.08
H       6.23      14.48       1.93
H      12.52      16.20       3.15
H      16.90       3.44       0.02
H      18.38      21.57      12.99
H      10.12      19.25      16.22
H       8.63       1.13       3.25
H       7.45      12.00      13.83
H      11.30       5.73       9.34
H      19.57      10.69       2.41
H      15.72      16.96       6.90
H       6.09      11.26      11.86
H      12.66       7.83       9.41
H      20.93      11.44       4.38
H      14.36      14.86       6.83
H       6.74       5.13      10.35
H      12.01      11.24      14.73
H      20.27      17.57       5.89
H      15.01      11.45       1.51
H       8.71       4.45       9.00
H      10.04      12.74      14.93
H      18.30      18.25       7.24
H      16.98       9.95       1.30
H       7.65       7.34       5.99
H      11.10      14.65      11.23
H      19.37      15.36      10.25
H      15.91       8.04       5.01
H       5.72       8.08       7.37
H      13.03      13.12      10.97
H      21.30      14.62       8.87
H      13.99       9.58       5.27
H      16.80       5.04      10.60
H      18.48      11.03      14.89
H      10.22      17.65       5.64
H       8.53      11.66       1.35
H      14.68       4.02       9.82
H      20.61      12.10      15.60
H      12.34      18.67       6.42
H       6.41      10.59       0.64
H      15.43       5.42       5.83
H      19.85      15.42      12.99
H      11.58      17.27      10.41
H       7.17       7.27       3.25
H      17.56       6.49       6.59
H      17.73      14.36      12.23
H       9.46      16.21       9.64
H       9.29       8.34       4.01
H       6.03       5.41       3.99
H      12.72      17.18      12.41
H      20.98      17.29      12.25
H      14.30       5.52       3.83
H       5.89       3.99       6.38
H      12.86      15.37      14.52
H      21.13      18.71       9.86
H      14.16       7.32       1.72
H      18.51       4.68       4.87
H      16.77      16.58      13.38
H       8.50      18.02      11.37
H      10.25       6.12       2.86
H       4.68       4.14       8.44
H      14.07      13.37      15.05
H      22.34      18.56       7.80
H      12.95       9.33       1.19
H       8.88      20.13      10.38
H       9.87       6.38       0.53
H      18.13       2.56       5.86
H      17.15      16.32      15.71
C      19.59       8.04      10.41
C      15.69      10.25      11.99
C       7.43      14.66       5.83
C      11.32      12.44       4.25
C      20.14       8.20      11.83
C      15.15       8.85      12.30
C       6.88      14.50       4.41
C      11.87      13.84       3.94
C      20.74       8.01       9.40
C      14.55      11.22      11.69
C       6.28      14.68       6.84
C      12.47      11.48       4.55
C      18.79       6.72      10.34
C      16.49      10.74      13.21
C       8.23      15.97       5.90
C      10.52      11.96       3.03
C      18.67       9.21      10.06
C      16.62      10.20      10.76
C       8.35      13.48       6.18
C      10.40      12.49       5.47
C      21.63       9.70      12.97
C      13.65       7.29      11.24
C       5.39      12.99       3.27
C      13.36      15.40       5.00
C      21.49       9.04      14.20
C      13.80       6.34      12.26
C       5.53      13.65       2.04
C      13.22      16.36       3.98
C      22.25       9.47      15.29
C      13.04       5.17      12.21
C       4.77      13.23       0.95
C      13.98      17.52       4.03
C       6.61      10.53      15.16
C      12.14       4.94      11.17
C      20.40      12.16       1.08
C      14.88      17.75       5.07
C       6.75      11.17      13.92
C      12.00       5.91      10.16
C      20.26      11.52       2.32
C      15.02      16.78       6.08
C      22.53      10.77      12.83
C      12.75       7.07      10.19
C       4.48      11.93       3.41
C      14.27      15.62       6.05
C       2.14       5.47       0.09
C      16.60      20.85      11.09
C      24.87      17.22      16.15
C      10.41       1.85       5.15
C       6.11       6.63       8.94
C      12.64      12.09      12.85
C      20.91      16.07       7.30
C      14.37      10.60       3.39
C       6.95       5.60       9.39
C      11.80      11.99      13.97
C      20.06      17.09       6.84
C      15.22      10.70       2.27
C       8.05       5.22       8.63
C      10.70      12.84      14.08
C      18.97      17.47       7.61
C      16.31       9.86       2.16
C       8.30       5.84       7.39
C      10.45      13.81      13.10
C      18.72      16.85       8.84
C      16.57       8.88       3.14
C       7.45       6.86       6.95
C      11.30      13.90      11.99
C      19.57      15.83       9.29
C      15.71       8.80       4.25
C       6.36       7.27       7.72
C      12.39      13.04      11.85
C      20.66      15.42       8.52
C      14.63       9.66       4.39
C       9.44       5.42       6.55
C       9.31      14.74      13.23
C      17.57      17.28       9.68
C      17.71       7.95       3.01
C      17.30       5.85       8.64
C      17.98      12.62      13.49
C       9.72      16.84       7.59
C       9.03      10.07       2.75
C      16.51       5.14       9.56
C      18.77      11.99      14.46
C      10.51      17.56       6.68
C       8.24      10.70       1.78
C      15.32       4.55       9.12
C      19.96      12.60      14.88
C      11.69      18.15       7.12
C       7.06      10.10       1.36
C      14.92       4.65       7.78
C      20.36      13.83      14.35
C      12.10      18.05       8.46
C       6.65       8.86       1.89
C      15.75       5.34       6.87
C      19.54      14.47      13.40
C      11.27      17.36       9.37
C       7.48       8.23       2.83
C      16.93       5.93       7.29
C      18.36      13.88      12.98
C      10.09      16.76       8.95
C       8.66       8.82       3.26
C      13.61       4.10       7.33
C      21.67      14.43      14.73
C      13.41      18.60       8.91
C       5.34       8.26       1.51
C       5.17       5.03       4.52
C      13.58      16.79      12.94
C      21.85      17.66      11.72
C      13.44       5.90       3.30
C       5.12       4.34       5.70
C      13.63      15.90      13.97
C      21.90      18.36      10.54
C      13.38       6.80       2.26
C       3.06       4.65       4.91
C      15.69      16.54      13.42
C      23.95      18.04      11.33
C      11.33       6.15       2.82
C       3.20       3.42       7.04
C      15.55      14.93      15.28
C      23.82      19.28       9.20
C      11.47       7.77       0.96
C       3.79       3.52       8.30
C      14.96      13.70      15.58
C      23.23      19.17       7.94
C      12.06       9.00       0.66
C       8.45      20.03       9.38
C      10.30       7.35       0.31
C      18.57       2.66       6.86
C      16.71      15.35      15.93
N       3.89       5.22       4.04
N      14.86      17.18      12.60
N      23.13      17.47      12.20
N      12.15       5.51       3.64
N       3.77       4.09       5.94
N      14.98      15.75      14.28
N      23.25      18.60      10.30
N      12.04       6.94       1.96
O      17.64       9.26      11.04
O       9.37      13.44       5.20
O      20.93       9.39      11.84
O      14.35       8.46      11.18
O       6.09      13.31       4.40
O      12.66      14.23       5.06
O       5.06       6.92       9.76
O      13.69      11.22      12.84
O      21.96      15.77       6.48
O      13.32      11.47       3.40
O      18.45       6.51       8.97
O      16.83      12.11      12.97
O       8.57      16.18       7.27
O      10.18      10.59       3.27
O       2.01       4.93       1.24
O      16.74      19.93      11.98
O      25.01      17.77      15.00
O      10.27       2.76       4.26
O       8.20      12.00      16.18
O      10.55       3.51      10.10
O      18.82      10.70       0.06
O      16.47      19.19       6.13
O      10.35       4.64       7.08
O       8.40      14.50      14.14
O      16.67      18.06       9.16
O      18.61       8.19       2.10
O       9.56       5.79       5.35
O       9.19      15.76      12.48
O      17.45      16.90      10.89
O      17.83       6.94       3.76
O      12.90       3.47       8.18
O      22.39      13.84      15.60
O      14.12      19.23       8.06
O       4.63       8.86       0.64
O      13.29       4.32       6.11
O      22.00      15.52      14.12
O      13.73      18.37      10.13
O       5.02       7.18       2.12
