178

Zn       8.94       5.80      15.84
Zn      17.34       2.07       0.58
Zn       2.10       1.60       0.71
Zn       7.83      16.68       0.44
Zn      17.43      12.05      10.65
Zn      19.60      11.60       8.36
Zn      17.43      13.88       8.02
Zn      16.69      10.71       7.76
H      24.35      13.51      15.13
H      26.05      14.01      15.28
H      25.41      12.68      16.28
H      26.80      11.77      14.39
H      25.80      12.61      13.21
H      26.28       9.91      15.29
H      21.05       8.91      12.85
H      21.81      12.91      11.40
H      23.88      13.01      12.72
H      17.53       5.41      14.11
H      25.31      21.26      14.67
H      16.83       4.97      15.68
H      22.80      21.08      14.55
H      15.78       3.92      12.97
H      13.66       4.74      15.54
H      13.95       9.70      12.41
H      16.73       7.26      10.20
H      16.44       5.44      11.82
H      30.07      16.69      13.57
H      28.66      17.76      13.73
H      29.93      17.76      14.98
H      30.16      19.78      13.51
H      30.26      18.76      12.08
H      31.85      20.33      14.66
H      17.33      16.42      12.84
H      14.05      15.46      10.20
H      12.62      17.08      11.37
H       4.49       8.90       1.15
H      13.15      13.70      17.22
H       4.58       7.41       0.18
H      29.38      12.68      16.90
H      29.26      14.18      17.83
H      29.11      10.68      17.79
H      18.33       7.58       5.10
H      20.50      11.17       4.09
H      21.09      10.22       1.90
H      26.48      14.97       7.36
H      27.92      15.96       7.70
H      27.43      15.65       6.02
H      26.78      17.97       6.70
H      25.88      17.36       8.08
H      26.13      17.75       4.62
H      20.71      15.68       5.48
H      22.50      14.75       9.29
H      24.55      15.93       8.64
H      12.74      11.16       0.56
H      21.34      15.99      16.63
H      19.97      16.73      17.47
H      21.61      18.48      16.81
H      22.91      17.65      17.66
H      20.02      19.60      17.83
H      13.75      14.89       5.43
H      15.72      11.42       3.79
H      14.74      11.89       1.58
C      25.37      13.14      15.29
C      25.78      12.14      14.21
C      25.28       9.85      14.84
C      24.51       8.73      14.97
C      25.13       7.60      15.72
C      23.21       8.63      14.33
C      22.85       9.84      13.55
C      21.65       9.82      12.80
C      21.29      10.91      12.02
C      22.10      12.06      12.01
C      23.27      12.11      12.74
C      23.68      10.99      13.50
C      20.09      10.93      11.12
C      16.98       4.62      14.65
C      15.64       4.31      13.99
C      13.78       5.60      14.87
C      12.94       6.68      14.97
C      11.76       6.55      15.88
C      13.14       7.86      14.15
C      14.21       7.70      13.14
C      14.48       8.76      12.26
C      15.39       8.61      11.21
C      16.05       7.38      11.04
C      15.87       6.36      11.94
C      14.96       6.50      13.01
C      15.74       9.75      10.32
C      29.74      17.68      13.90
C      30.48      18.79      13.15
C      14.01      19.57      14.25
C      15.32      19.49      14.61
C      15.85      20.52      15.57
C      16.19      18.44      14.12
C      15.55      17.56      13.12
C      16.30      16.55      12.50
C      15.78      15.81      11.46
C      14.45      16.03      11.04
C      13.65      16.95      11.69
C      14.19      17.74      12.73
C      16.57      14.79      10.71
C       4.19       8.44       0.20
C      21.18       8.45       0.02
C      20.22       6.39       0.87
C      19.51       5.60       1.73
C      19.31       4.16       1.39
C      18.96       6.15       2.97
C      19.33       7.57       3.20
C      18.94       8.17       4.41
C      19.36       9.45       4.74
C      20.15      10.17       3.83
C      20.48       9.63       2.60
C      20.09       8.31       2.27
C      19.01      10.04       6.07
C      27.05      15.84       7.04
C      26.20      17.11       7.07
C      25.14      17.38       4.90
C      24.14      17.27       3.98
C      24.48      17.57       2.55
C      22.82      16.77       4.34
C      22.73      16.34       5.75
C      21.54      15.74       6.19
C      21.45      15.16       7.45
C      22.56      15.23       8.32
C      23.71      15.89       7.94
C      23.83      16.43       6.64
C      20.27      14.34       7.83
C      21.04      16.53      17.54
C      21.83      17.83      17.67
C      12.04      14.83       0.96
C      11.66      15.65       1.98
C      10.52      16.56       1.65
C      12.29      15.54       3.30
C      13.31      14.46       3.38
C      13.97      14.22       4.60
C      14.83      13.14       4.75
C      15.07      12.28       3.65
C      14.51      12.55       2.42
C      13.63      13.63       2.26
C      15.54      12.86       6.03
N      24.90      10.97      14.16
N      14.76       5.48      13.93
N      13.43      18.72      13.35
N      20.46       7.72       1.07
N      25.01      17.02       6.21
N      13.02      13.89       1.04
O      27.35       5.72      17.79
O      24.70       7.34      16.89
O      26.09       7.02      15.12
O      22.49       7.62      14.38
O      20.30      10.61       9.91
O      18.99      11.33      11.63
O      11.96       6.29      17.11
O      10.63       6.65      15.30
O      12.50       8.92      14.29
O      15.96       9.47       9.09
O      15.82      10.91      10.85
O      15.68      20.27      16.80
O       8.69       4.01      15.05
O      17.37      18.29      14.50
O      16.60      14.95       9.45
O      17.11      13.84      11.38
O      20.37       3.45       1.30
O      18.11       3.78       1.21
O      18.29       5.49       3.78
O      17.94       9.63       6.63
O      19.82      10.90       6.55
O      25.09      16.63       1.95
O      16.49       1.18       2.09
O      21.88      16.65       3.53
O      19.12      14.66       7.36
O      20.51      13.35       8.61
O       9.57      15.98       1.00
O      10.57      17.79       1.95
O      11.97      16.22       4.29
O      16.02      13.86       6.65
O      15.64      11.62       6.36
O      17.73      12.07       8.71
