66

Fe       2.65       1.06       8.57
Fe       5.30      -1.06       8.57
Fe      -0.00      -0.00       6.73
Fe      -0.00       5.83       3.37
Fe      -2.65       7.95       3.37
Fe       2.65       6.89       5.20
H       2.99       4.00       6.92
H       4.96      -4.00       6.92
H       0.34      -2.89       5.01
H      -2.31      -1.10      11.94
H       2.31       1.10      11.94
H      -0.34       2.89       5.01
C       4.65       2.58       6.82
C       3.30      -2.58       6.82
C       2.00      -2.28       6.29
C      -0.65      -0.31      10.77
C       0.65       0.31      10.77
C      -2.00       2.28       6.29
C      -2.00       4.30       5.12
C      -0.65       9.47       5.12
C       0.65       9.17       5.65
C       3.30       7.19       1.17
C       2.00       6.58       1.17
C       4.65       4.61       5.65
C       3.97       3.76       6.52
C       1.33      10.01       6.52
C       1.32      -3.12       5.41
C      -1.33      -0.64      11.94
C       1.33       0.64      11.94
C      -1.32       3.12       5.41
C       2.65       2.58       9.45
C       5.30      -2.58       9.45
C       0.00      -0.00       4.98
C      -0.00       4.30       2.49
C      -2.65       9.47       2.49
C       2.65       6.89       6.96
N       4.29       1.52       7.61
N       3.66      -1.52       7.61
N       1.64      -1.06       6.82
N      -1.01      -0.46       9.45
N       1.01       0.46       9.45
N      -1.64       1.06       6.82
N      -1.64       5.37       4.33
N      -1.01       8.41       4.33
N       1.01       7.95       5.12
N       3.66       7.34       2.49
N       1.64       6.43       2.49
N       4.29       5.83       5.12
N      -2.65       0.65       7.58
N       2.65      -0.65       7.58
N      -0.00      -0.00       8.71
N       5.30       6.24       4.35
N      -0.00       7.54       4.35
N       2.65       6.89       3.23
Cl       3.98      -0.00      10.08
Cl       1.33       1.84       6.90
Cl      -1.33      -1.84       6.90
Cl      -1.33       6.89       1.85
Cl       1.32       5.05       5.04
Cl       3.97       8.73       5.04
O       2.65       3.59      10.03
O       5.30      -3.59      10.03
O       0.00      -0.00       3.81
O      -0.00       3.30       1.91
O      -2.65      10.48       1.91
O       2.65       6.89       8.12
