162

Zn       3.82      18.79       7.20
Zn       3.83       6.29      18.86
Zn       2.37       6.25       5.84
Zn       8.19      18.83      20.23
Zn       4.98      12.54      13.04
Zn       6.43      25.08       0.00
H       7.15      18.26       8.90
H       5.58      16.37       9.25
H       7.64      14.24       6.11
H       3.30      16.27       5.85
H       8.67      14.92      10.31
H       6.65      14.76      11.81
H       6.31      10.69      11.16
H       2.50      10.67       9.65
H       4.55       9.13       8.16
H       5.63       7.01       7.39
H       2.83       9.09       5.44
H       7.71      11.31       6.19
H       7.17       6.81      17.16
H       5.59       8.71      16.80
H       7.65      10.83      19.94
H       3.31       8.80      20.22
H       8.68      10.16      15.76
H       6.65      10.32      14.27
H       6.31      14.39      14.91
H       8.33      14.40      16.43
H       4.55      15.94      17.90
H       5.62      18.06      18.68
H       8.65      16.00      20.63
H       7.72      13.77      19.87
H       5.71       5.72       4.13
H       4.13       3.83       3.78
H       6.20       1.70       6.91
H       1.85       3.73       7.19
H       1.40       2.38       2.73
H       5.20       2.22       1.23
H       7.75      23.23       1.87
H       3.95      23.21       3.39
H       6.01      21.68       4.86
H       7.08      19.56       5.63
H       4.27      21.63       7.60
H       9.16      23.85       6.84
H       5.70      19.36      21.94
H       9.95      21.25      22.30
H       6.18      23.38      19.15
H       7.66      21.35      18.88
H       7.21      22.70      23.35
H      11.02      22.86      24.84
H       7.77       1.84      24.19
H       3.96       1.86      22.68
H       6.02       3.41      21.21
H       7.09       5.52      20.43
H       4.29       3.45      18.47
H       3.36       1.23      19.23
C       7.23      17.36       8.30
C       6.35      16.29       8.50
C       6.51      15.14       7.72
C       7.51      15.12       6.74
C       8.33      16.23       6.59
C       5.70      13.92       7.96
C       3.99      12.82       8.96
C       5.49      11.67       7.71
C       2.80      12.81       9.84
C       8.16      13.97      10.46
C       7.05      13.88      11.29
C       6.86      11.60      10.93
C       7.96      11.60      10.09
C       6.05      10.39       7.23
C       5.46       9.16       7.57
C       6.07       7.98       7.15
C       1.93       9.16       6.06
C       7.23      10.37       6.46
C       7.25       7.72      17.75
C       6.36       8.78      17.56
C       6.52       9.94      18.34
C       7.52       9.95      19.32
C       8.34       8.85      19.47
C       5.71      11.16      18.10
C       3.99      12.25      17.11
C       5.50      13.40      18.36
C       8.63      12.27      16.23
C       8.16      11.11      15.61
C       7.05      11.19      14.78
C       6.86      13.48      15.15
C       7.96      13.48      15.98
C       6.06      14.69      18.84
C       5.46      15.91      18.50
C       6.06      17.09      18.92
C       7.76      15.92      20.01
C       7.23      14.70      19.61
C       5.79       4.81       4.73
C       4.91       3.75       4.53
C       5.06       2.60       5.31
C       6.06       2.58       6.29
C       6.88       3.69       6.44
C       4.26       1.38       5.07
C       2.54       0.28       4.07
C       6.95      24.21       5.32
C       1.35       0.26       3.20
C       0.89       1.43       2.58
C       5.60       1.35       1.74
C       8.31      24.14       2.11
C       3.59      24.14       2.95
C       7.51      22.93       5.80
C       6.92      21.71       5.46
C       7.52      20.53       5.88
C       3.38      21.70       6.97
C       8.68      22.92       6.57
C       5.78      20.27      21.34
C       4.90      21.33      21.54
C       5.05      22.48      20.76
C       6.05      22.50      19.77
C       6.87      21.39      19.62
C      10.07      23.70      21.00
C       8.35      24.80      21.99
C       6.96       0.86      20.74
C       7.16      24.81      22.87
C       6.70      23.65      23.49
C       5.59      23.73      24.32
C       8.33       0.93      23.96
C       3.60       0.93      23.12
C       7.52       2.15      20.26
C       6.93       3.37      20.61
C       7.53       4.55      20.18
C       3.40       3.38      19.10
C       2.87       2.16      19.50
N       6.17      12.79       7.40
N       4.62      13.99       8.75
N       4.39      11.64       8.46
N       6.41      12.72      11.52
N       8.21      17.32       7.38
N       7.19       7.98       6.41
N       6.18      12.29      18.66
N       4.63      11.08      17.31
N       4.39      13.44      17.61
N       6.41      12.35      14.56
N       8.22       7.76      18.68
N       7.19      17.10      19.66
N       4.73       0.25       5.62
N       3.17       1.45       4.28
N       5.84      24.18       4.57
N       4.96       0.18       1.52
N       6.76       4.77       5.65
N       8.64      20.53       6.62
N      10.54      24.83      20.44
N       8.99      23.63      21.79
N       5.85       0.90      21.49
N      10.78      24.89      24.55
N       6.76      20.31      20.41
N       2.83       4.56      19.44
Cl       5.06      18.11       5.47
Cl       4.64      19.35       9.18
Cl       4.07      10.54      12.74
Cl       5.07       6.97      20.59
Cl       4.65       5.72      16.88
Cl       4.08      14.54      13.33
Cl       3.61       5.57       7.57
Cl       3.19       6.81       3.85
Cl       5.52      23.08       0.29
Cl       9.43      19.51      18.50
Cl       9.01      18.27      22.22
Cl       5.54       1.99      25.77
