66

Zn       6.67       5.89       5.56
Zn       3.92       6.19       5.52
H       2.92       2.05       5.55
H       3.72      10.43       5.60
H       1.86       5.02       7.26
H       1.68       7.25       3.75
H       8.93       4.72       7.19
H       8.73       7.06       3.76
H       0.42       1.84       4.44
H       2.02      11.18       4.91
H       1.02       9.13       7.39
H       1.88      10.58       6.96
H       8.45       6.19      10.30
H       7.61       5.89       8.81
H       7.51       5.13       2.47
H       8.04       4.22       1.11
C       5.24       6.11       2.91
C       5.20       6.10       8.18
C       5.17       3.43       5.44
C       5.59       8.63       5.77
C       7.52       1.46       5.05
C       8.25      10.02       6.50
C       8.65       0.73       5.43
C       9.55      10.50       6.29
C       7.09      10.69       5.97
C       6.19       1.08       5.48
C       5.05       1.93       5.43
C       5.79      10.11       5.88
C       3.78       1.38       5.56
C       4.69      10.93       5.67
C       4.15       6.26       0.63
C       4.10       6.92      10.31
C       5.23       6.38       9.64
C       5.29       5.98       1.43
C       6.43       6.25      10.38
C       6.41       5.40       0.81
C       1.24       5.44       6.47
C       1.14       6.71       4.53
C       9.46       5.30       6.44
C       9.36       6.59       4.53
N       8.73       5.88       5.48
N       1.87       6.15       5.51
N       7.65       2.39       3.96
N       8.06       9.00       7.52
N       0.33       1.03       5.05
N       1.09       9.96       6.79
N       3.07       7.09       1.17
N       2.83       7.16       9.57
N       7.61       5.85       9.83
N       7.57       5.06       1.45
O       6.35       5.99       3.55
O       6.33       5.94       7.59
O       4.11       6.27       3.48
O       4.08       6.04       7.58
O       6.34       3.91       5.62
O       6.63       7.93       5.58
O       4.10       4.11       5.33
O       4.39       8.18       5.78
O       8.73       3.02       3.81
O       6.71       2.49       3.15
O       8.99       8.17       7.70
O       7.04       9.03       8.21
O       3.39       8.19       1.64
O       1.90       6.66       1.11
O       2.03       6.23       9.52
O       2.67       8.29       9.09
