53

Al       0.01      25.19       8.73
Al       0.01      15.11       2.91
H       1.87      12.68       6.73
H       1.87      19.64       3.10
H       1.87      23.10      16.35
H       1.98       7.58       3.76
H       1.98      19.62       9.01
H       1.98       8.07      13.41
C       1.99      25.24      10.78
C       1.99       6.79       7.66
C       1.99      23.39       7.74
C       1.99      13.34       3.94
C       1.99      16.89       3.93
C       1.99      15.11       0.86
C       1.94       8.27       5.55
C       1.92      11.86       6.02
C       1.97       8.08       6.92
C       1.97      12.05       4.66
C       2.00      10.48       6.35
C       2.01       9.65       5.22
C       1.94      20.83       7.52
C       1.92      19.44       4.17
C       1.97      22.11       7.00
C       1.97      18.16       4.69
C       2.00      20.41       5.20
C       2.01      19.85       6.49
C       1.94      26.33      13.11
C       1.92      24.12      15.98
C       1.97      25.23      12.26
C       1.97      25.21      16.83
C       2.00      24.52      14.63
C       2.01      25.92      14.47
S       2.05       9.57       7.81
S       2.09      10.56       3.76
S       2.05      22.13       5.26
S       2.09      18.13       6.43
S       2.05      23.72      13.11
S       2.09      26.73      15.99
O       2.93      24.21       7.46
O       2.93      24.58      10.21
O       2.93       6.63       8.51
O       1.07      23.59       8.60
O       1.07       5.95       7.40
O       1.07      25.88      10.18
O       2.92      15.76       1.44
O       2.92      13.52       3.08
O       2.92      16.06       4.20
O       1.07      14.45       1.45
O       1.07      16.71       3.07
O       1.07      14.18       4.21
O       1.90       7.23       4.67
O       1.90      20.58       8.86
O       1.90       7.46      12.65
