62

Al       3.98      -0.00      14.94
Al       4.01       8.63       9.96
H       2.17      10.82       6.26
H       1.05       5.53       6.16
H       2.83       5.54       6.21
H       2.91       5.60       3.70
H       1.13       5.59       3.64
H       2.17       4.32       9.91
H       1.05       6.88      14.54
H       2.83       6.92      14.51
H       2.91      13.34       0.77
H       1.13      13.29       0.81
H       2.17      -6.52      13.71
H       1.05      -3.79       9.18
H       2.83      -3.83       9.16
H       2.91      -1.69      10.47
H       1.13      -1.63      10.49
C       1.98      -1.81      13.97
C       1.98       8.69       2.05
C       1.98       1.74      13.86
C       2.00       8.66       7.91
C       2.00       6.83      10.95
C       2.00      10.38      11.01
C       2.01       8.67       6.43
C       2.01       8.72       3.54
C       1.96       7.50       5.67
C       2.05       9.90       4.32
C       2.00       7.54       4.27
C       2.09       9.88       5.71
C       1.95       5.99       5.73
C       2.00       6.02       4.15
C       2.01       5.54      11.69
C       2.01       3.02      13.09
C       1.96       5.47      13.08
C       2.05       3.10      11.68
C       2.00       4.24      13.74
C       2.09       4.32      11.00
C       1.95       6.28      14.36
C       2.00      13.52       0.18
C       2.01      -5.59      11.76
C       2.01      -3.11      13.25
C       1.96      -4.35      11.14
C       2.05      -4.37      13.88
C       2.00      -3.16      11.86
C       2.09      -5.57      13.17
C       1.95      -3.64       9.79
C       2.00      -2.29      10.61
Br       2.13      11.60       3.47
Br       2.13       1.51      10.63
Br       2.13       4.13       0.85
O       2.91       1.57      14.71
O       2.91      -0.98      13.69
O       2.91       8.03       1.48
O       1.02       0.94      13.65
O       1.02       9.27       1.46
O       1.02      -1.59      14.77
O       2.94       9.55      11.26
O       2.94       9.29       8.51
O       2.94       7.04      10.11
O       1.06      10.21      10.18
O       1.06       7.64      11.22
O       1.06       8.02       8.48
