80

Zn       9.94       7.87       7.69
Zn       9.11       5.22       7.74
H      12.97       3.37       6.26
H       6.46       4.00       8.45
H      10.02       2.56       6.91
H       4.31       3.77       5.51
H       9.14       0.21       6.81
H      12.74      11.71       5.80
H      11.76       9.40       5.92
H       9.83      10.23       9.48
H      10.71      12.58       9.52
H       1.96       2.99       5.62
H      13.96       7.26       7.72
H       9.65       8.75      11.93
H       6.00       9.77       8.18
H      15.25       8.72       7.73
H       6.04       5.41       6.17
H       9.68       8.79      14.43
H      15.12      10.44       9.20
H      15.13      10.97       7.49
H      15.65      12.11       8.79
H       9.42       4.48      11.97
H       9.48       4.49      14.47
H       7.77       4.96       1.07
H       7.95       4.97       3.56
H      10.77       8.19       3.37
H      10.66       8.15       0.88
H       5.42       1.72       8.43
C       9.54       6.60      10.31
C       5.62       7.79       7.46
C       9.64       7.84      13.90
C       7.07       7.41       7.60
C       9.61       7.83      12.51
C       9.54       6.62      11.81
C       9.47       5.42      12.53
C       9.50       5.43      13.92
C       9.59       6.64      14.63
C       8.45       5.66       1.57
C       8.53       5.67       2.96
C       3.27       7.17       7.18
C       9.37       6.58       3.61
C      10.12       7.49       2.85
C      10.04       7.47       1.46
C       9.46       6.59       5.10
C       9.20       6.56       0.79
C       6.45       1.85       8.11
C       7.02       3.12       8.12
C       9.01       2.31       7.23
C       8.51       1.02       7.18
C       7.21       0.76       7.64
C       4.64       6.84       7.02
C      12.11      11.43       6.64
C      11.57      10.15       6.69
C      10.47      10.62       8.68
C      10.96      11.92       8.70
C      11.94       5.63       7.44
C      11.80      12.35       7.66
C      15.05       3.93       6.08
C      13.35       5.36       7.04
C       5.25       9.05       7.87
C      17.28       9.40       7.94
C      15.65       6.16       6.91
C      16.30       8.46       7.63
C      15.65      11.06       8.46
C       2.65       4.92       6.33
C       4.03       4.69       6.03
C       4.99       5.60       6.39
C      14.30       6.34       7.25
C      13.73       4.14       6.43
N       8.28       3.34       7.70
N      10.76       9.75       7.69
O       9.61       7.73       9.71
O       9.47       5.46       9.74
O       7.95       8.30       7.37
O       7.30       6.22       8.00
O      10.12       7.53       5.65
O       8.85       5.65       5.73
O      11.69       6.80       7.90
O      11.07       4.70       7.30
O      17.02      10.68       8.35
