108

Zn       8.76       0.52      14.63
Zn      -2.38       8.48       1.22
Zn       8.67       0.59       0.95
Zn      -2.22       8.59      14.46
Zn       8.45      12.34       7.93
Zn      -2.40      -3.24       7.90
H       5.49      -2.23      14.67
H      11.99       6.16       0.85
H      10.59       4.30       0.73
H       4.25      -4.19      14.50
H       5.82      -5.25      12.86
H      15.04       4.18       0.39
H      13.94       4.93       1.53
H      12.63       3.00       1.57
H      13.72       2.24       0.40
H      -6.58      11.21       5.37
H      11.54      10.35       1.77
H      -5.33       9.90       4.16
H       0.32      14.72       1.21
H      -4.90       5.03      13.94
H      -0.58      12.37       1.39
H      -7.59       4.19      14.00
H      -4.88      -1.37      10.75
H      12.61      -4.03      11.62
H      -6.76      -0.48      12.21
H      -5.73      -2.65      14.14
H       1.14      -4.31      10.59
H       2.41      -6.07      11.97
H      -0.19      -5.97      13.62
H      13.90      -1.23       4.79
H      10.22      -1.40       4.62
H       6.24      15.96       2.61
H       7.22      -6.17      13.41
H      -7.34      11.33      11.17
H      11.68      -3.05       5.92
C      14.08       9.53       2.12
C       8.11      -1.99      15.10
C      -7.21      -1.10      14.67
C      -8.29       2.47      15.18
C       5.87      -3.00      15.35
C       5.01      -4.28      15.30
C       7.43      -4.04      13.64
C      13.98       4.41       0.56
C       7.35      -3.32      15.01
C       5.90      -5.50      15.01
C       6.58      -5.32      13.65
C      13.11       3.13       0.59
C      10.88      10.89       3.77
C      11.15      11.28       5.03
C      11.85      10.37       2.81
C      13.09       9.95       3.13
C       0.29      14.07       0.33
C      -5.02       5.67      14.82
C      -0.55      12.89       0.42
C      -7.47       3.68      14.96
C      -5.46      -2.02      11.41
C      13.25      -3.33      11.09
C      -6.22      -1.40      12.47
C      -6.31      -1.81      13.75
C       1.60      -7.10      14.26
C       5.07      -6.78      15.06
C      10.65      -0.82       2.02
C      -4.18       6.88      14.90
C      -1.36      -4.93       9.61
C      10.26      11.93       6.03
C      14.31      -2.76       6.30
C      13.98      -3.84       9.91
C       0.64      -5.13      11.12
C      -0.59      -5.52      10.72
C       1.36      -5.84      12.16
C       0.82      -6.26      13.32
C      12.12      -2.30       5.24
C      13.43      -2.03       5.35
C      11.23      -1.65       4.30
C      11.57      -1.42       3.01
N       8.93      -4.36      13.28
N       9.50      11.00       3.26
N       6.99      -3.13      12.45
O      13.82       9.68       0.88
O      -3.60       9.03       2.61
O       7.80      -1.11      14.20
O      14.99       6.94       0.57
O      -8.13      -0.37      14.18
O      -0.91       7.49       0.44
O      -9.22       2.25      14.30
O      -1.93      10.46       0.67
O       1.27      -7.05      15.51
O      -3.75       9.91      13.78
O      10.30       1.87       0.45
O       5.34      -7.70      14.20
O       9.62      -0.17       2.45
O       4.67      16.73       0.79
O       1.67      16.47       0.28
O      -3.21       6.97      14.05
O      -8.61      12.11       9.18
O      -1.01      -3.77       9.15
O       9.26      11.27       6.51
O      -8.12      13.08       6.39
O       7.66      13.82       6.71
O      15.40      -2.16       6.63
O      13.63      -5.00       9.47
O      -3.87      -3.11       9.40
O       9.78      -3.61      13.74
O       9.14      -5.34      12.56
O       9.15      10.13       2.44
O       8.79      11.93       3.67
O       5.78      -2.90      12.39
O       7.85      -2.73      11.67
