136

Ni       3.08       3.46       9.02
Ni       1.93      12.84       0.80
Ni       6.93      11.61      15.63
Ni       8.08       4.69       7.41
H       4.24       4.02       4.87
H       0.77      12.28      13.09
H       5.77      12.17       3.34
H       9.24       4.13      11.56
H       3.95       5.61       5.59
H       1.05      10.69      13.80
H       6.05      13.76       2.62
H       8.95       2.54      10.84
H       1.86       4.31       5.54
H       3.14      11.99      13.75
H       8.14      12.46       2.68
H       6.87       3.84      10.89
H       1.36       4.60       7.78
H       3.65      11.70      15.99
H       8.65      12.75       0.44
H       6.36       3.55       8.65
H       7.78      10.22      13.13
H       7.22       6.08       4.92
H       2.22       2.07      11.51
H       2.78      14.23       3.29
H       6.93       8.40      11.63
H       8.08       7.90       3.42
H       3.08       0.25      13.01
H       1.92      16.06       4.80
H       3.50       8.10      14.26
H       1.50       8.20       6.04
H       6.50      16.25      10.39
H       8.50       0.05       2.17
H       4.56       9.83      15.69
H       0.45       6.47       7.47
H       5.45       1.68       8.96
H       9.56      14.62       0.74
H       3.61       5.92      13.47
H       1.39      10.38       5.25
H       6.39      14.07      11.17
H       8.61       2.23       2.96
H       2.82       4.16      11.91
H       2.18      12.14       3.69
H       7.18      12.31      12.73
H       7.82       3.99       4.52
H       4.47       6.10       8.64
H       0.53      10.20       0.43
H       5.53      14.25      16.00
H       9.47       2.05       7.78
H       5.33       7.94      10.05
H       9.67       8.36       1.84
H       4.67      16.09      14.59
H       0.33       0.21       6.38
C       5.14       4.31       6.78
C       9.86      11.99      14.99
C       4.86      12.46       1.44
C       0.14       3.84       9.65
C       3.98       4.54       5.81
C       1.02      11.76      14.03
C       6.02      12.69       2.40
C       8.99       3.61      10.62
C       2.63       4.05       6.29
C       2.38      12.25      14.50
C       7.38      12.20       1.92
C       7.63       4.10      10.14
C       2.61       2.51       6.45
C       2.39      13.79      14.67
C       7.40      10.66       1.76
C       7.61       5.64       9.98
C       6.82       9.74      13.32
C       8.18       6.57       5.11
C       3.18       1.58      11.32
C       1.82      14.72       3.11
C       6.33       8.75      12.48
C       8.67       7.55       4.26
C       3.67       0.60      12.17
C       1.33      15.70       3.95
C       5.10       8.14      12.78
C       9.90       8.16       4.56
C       4.90      16.29      11.86
C       0.10       0.01       3.65
C       4.46       8.53      13.96
C       0.55       7.77       5.74
C       5.55       0.38      10.68
C       9.46      15.92       2.47
C       5.03       9.52      14.76
C       9.98       6.78       6.54
C       4.98       1.37       9.89
C       0.02      14.93       1.67
C       4.55       7.10      11.90
C       0.45       9.20       3.68
C       5.45      15.25      12.75
C       9.55       1.05       4.53
C       3.81       6.01      12.40
C       1.19      10.29       4.19
C       6.19      14.16      12.24
C       8.81       2.14       4.03
C       3.38       5.02      11.54
C       1.62      11.28       3.32
C       6.62      13.17      13.10
C       8.38       3.13       4.89
C       4.29       6.10       9.72
C       0.71      10.20       1.50
C       5.71      14.25      14.93
C       9.30       2.05       6.71
C       4.77       7.13      10.51
C       0.23       9.17       2.30
C       5.23      15.28      14.13
C       9.77       1.02       5.92
N       6.18      10.14      14.43
N       8.83       6.16       6.22
N       3.83       1.99      10.21
N       1.17      14.31       2.00
N       3.63       5.04      10.21
N       1.37      11.27       2.00
N       6.37      13.19      14.43
N       8.63       3.12       6.21
O       4.95       3.72       7.90
O       0.05      12.58      16.12
O       5.05      11.87       0.31
O       9.95       4.43       8.52
O       6.27       4.74       6.39
O       8.74      11.56      14.60
O       3.74      12.89       1.82
O       1.27       3.41      10.04
O       2.33       4.74       7.52
O       2.67      11.56      15.74
O       7.67      12.89       0.69
O       7.33       3.41       8.90
O       2.68       1.82       5.41
O       2.32      14.48      13.63
O       7.33       9.97       2.80
O       7.68       6.33      11.02
O       2.51       2.07       7.66
O       2.49      14.23      15.87
O       7.49      10.22       0.56
O       7.51       6.08       8.77
