162

Zn       0.07      10.78       9.67
Zn       9.25      -1.59      11.95
Zn       7.60       0.07       9.67
Zn       1.59       9.26      11.95
Zn      -0.07       7.60       9.67
Zn       9.12       1.59      11.95
Zn      10.78      -0.07       9.67
Zn      -1.59       9.12      11.95
H      10.80      -1.42      16.04
H       1.66      10.56       5.58
H       1.37      10.84      16.04
H       7.76       1.61       5.58
H       7.58       1.42      16.04
H      -1.65       7.82       5.58
H      -1.37       7.53      16.04
H      10.61      -1.61       5.58
H      -2.60      13.92       9.28
H      11.86      -4.82      12.33
H       4.46      -2.60       9.28
H       4.82      11.86      12.33
H       2.60       4.46       9.28
H       6.52       4.82      12.33
H      13.92       2.60       9.28
H      -4.82       6.52      12.33
H       6.59      -4.73      12.34
H       2.67      14.00       9.29
H      -4.73      11.79      12.34
H      14.00      -2.67       9.29
H      11.79       4.73      12.34
H      -2.67       4.37       9.29
H       4.73       6.59      12.34
H       4.37       2.67       9.29
H      -7.53      -1.37      18.53
H       1.70      10.50       3.10
H       1.32      -7.49      18.53
H       7.81       1.65       3.09
H       7.53       1.37      18.53
H      16.68       7.87       3.09
H      -1.32       7.49      18.53
H      10.56      16.72       3.09
H      -8.22       2.96      20.43
H       8.53       3.07      20.39
H       0.86       6.20       1.20
H      17.61       6.14       1.23
H      -2.99      -8.33      20.43
H      -3.04       8.42      20.39
H      12.15       0.97       1.20
H      12.26      17.72       1.23
H       8.22      -2.96      20.42
H      -8.53      -3.07      20.40
H      17.51      12.18       1.20
H       0.77      12.23       1.23
H       2.99       8.32      20.43
H       3.05      -8.42      20.39
H       6.23      17.41       1.20
H       6.12       0.66       1.23
C      10.10      -0.80      16.60
C       0.93       9.96       5.03
C       4.75      12.72      11.67
C       3.46       4.52       9.95
C       5.65       4.75      11.67
C      13.86       3.46       9.95
C      -4.75       5.65      11.67
C       5.73      -4.67      11.67
C       3.54      13.94       9.95
C      -4.66      12.65      11.67
C      13.94      -3.54       9.95
C      12.65       4.67      11.67
C       0.77      10.12      16.60
C      -3.53       4.44       9.95
C       4.67       5.73      11.67
C       4.44       3.54       9.95
C      -3.46      13.85       9.95
C      12.72      -4.75      11.67
C       4.52      -3.46       9.95
C       8.39       0.91       5.02
C      12.83      -3.64      10.81
C       8.28       0.80      16.60
C      -3.56      12.75      10.81
C       3.65      12.83      10.81
C       5.62      -3.57      10.81
C       5.54       3.64      10.81
C       3.57       5.62      10.81
C      -3.64       5.54      10.81
C      12.75       3.57      10.81
C      -0.93       8.42       5.02
C      -0.77       8.25      16.60
C       9.99      -0.91       5.02
C       9.19      -0.00      18.71
C       0.00       9.19       2.91
C       0.00       9.19      18.71
C       9.19       0.00       2.91
C      10.11      -0.78      17.99
C       0.95       9.93       3.63
C       0.75      10.13      17.99
C       8.41       0.92       3.63
C       8.27       0.78      17.99
C      -0.95       8.44       3.63
C      -0.75       8.24      17.99
C       9.97      -0.92       3.63
C       9.19      -0.00      15.89
C       0.00       9.19       5.73
C       0.00       9.19      15.89
C       9.19       0.00       5.73
C       9.22       1.21      20.92
C      -0.01       7.97       0.71
C      -1.21       9.18      20.92
C      10.40       0.03       0.71
C       9.16      -1.22      20.92
C       0.01      10.40       0.71
C       1.22       9.20      20.92
C       7.97      -0.03       0.71
C       0.00       9.19       1.43
C       9.19      -0.00      20.19
C       9.19       0.00       1.43
C       0.00       9.19      20.19
C      -0.00       9.19      14.40
C       9.19      -0.00       7.22
C       9.19       0.00      14.40
C       0.00       9.19       7.22
C       2.59      11.78      10.81
C       6.68      -2.51      10.81
C       6.60       2.59      10.81
C       2.51       6.68      10.81
C      -2.59       6.60      10.81
C      11.70       2.51      10.81
C      11.78      -2.59      10.81
C      -2.51      11.70      10.81
N       9.31       2.45      20.18
N       0.03       6.74       1.44
N      -2.45       9.22      20.18
N      11.64       0.12       1.44
N       9.07      -2.45      20.18
N      -0.03      11.64       1.44
N       2.45       9.16      20.18
N       6.74      -0.12       1.44
O       0.00       9.19      10.81
O       8.12       0.40       7.80
O       8.79       1.07      13.82
O      -0.40       8.12       7.80
O      -1.07       8.78      13.82
O      10.26      -0.40       7.80
O       9.58      -1.07      13.82
O       0.41      10.25       7.80
O       1.06       9.59      13.82
O       9.19       0.00      10.81
O       2.81      10.74      11.52
O       6.58      -1.60       9.92
O       7.64       2.81      11.52
O       1.60       6.58       9.92
O      -2.81       7.64      11.52
O      11.80       1.60       9.92
O      10.74      -2.81      11.52
O      -1.60      11.79       9.92
O      12.00      -1.55      10.10
O      -2.61      10.79      11.70
O      -1.55       6.38      10.10
O      10.79       2.61      11.70
O       6.38       1.55      10.10
O       2.61       7.59      11.70
O       1.55      12.00      10.11
O       7.59      -2.61      11.70
