68

Al       4.01      20.11      17.41
Al       4.01      10.05      11.61
H       2.98       6.96       5.48
H       2.98      13.15       6.13
H       2.98      16.92      11.99
H       2.98      13.25      17.03
H       2.98      26.40      17.36
H       2.98      23.87      11.66
C       2.00      21.90      16.45
C       2.00      10.00       2.03
C       2.00      18.38      16.35
C       2.00      10.11       9.58
C       2.00      11.78      12.67
C       2.00       8.27      12.58
C       2.05       8.92       4.38
C       2.05      11.19       7.23
C       2.01      10.00       3.52
C       2.01      10.10       8.09
C       2.04      10.75       5.88
C       2.04       9.36       5.73
C       2.05      16.89      14.24
C       2.05      13.28      14.78
C       2.01      17.09      15.61
C       2.01      13.08      13.41
C       2.04      14.67      15.08
C       2.04      15.49      13.94
C       2.05      24.47      16.21
C       2.05      25.80      12.81
C       2.01      23.18      15.70
C       2.01      27.09      13.33
C       2.04      24.85      13.87
C       2.04      25.42      15.15
C       1.98       7.51       3.89
C       1.98      12.60       7.72
C       1.98      18.01      13.26
C       1.98      12.15      15.76
C       1.98      14.70       0.26
C       1.98      25.52      11.35
S       1.95      11.53       4.33
S       1.95       8.58       7.28
S       1.95      15.62      16.52
S       1.95      14.54      12.50
S       1.95      23.12      13.97
S       1.95      27.15      15.05
O       1.05      18.54      17.18
O       1.05      21.10      16.17
O       1.05      10.64       1.48
O       2.95      19.18      16.13
O       2.95       9.40       1.45
O       2.95      21.69      17.26
O       1.05       9.06      12.85
O       1.05       9.47      10.13
O       1.05      11.63      11.85
O       2.95       8.48      11.77
O       2.95      10.98      12.90
O       2.95      10.71      10.16
O       2.48       6.56       4.74
O       1.48       7.19       2.83
O       2.48      13.55       6.87
O       1.48      12.92       8.78
O       2.48      17.76      12.02
O       1.48      19.09      13.51
O       2.48      12.41      17.01
O       1.48      11.08      15.51
O       2.48      15.90       0.66
O       1.48      13.94       1.07
O       2.48      24.31      10.95
O       1.48       6.17      10.54
