102

Zn       8.12       6.97       9.75
Zn      -2.25       9.76       9.81
H       1.72       9.34       9.60
H       7.70       0.40       9.51
H       8.17       6.17      13.96
H       8.17       6.32       5.50
H      -2.09      10.30      16.61
H      -2.15      10.60       3.07
H      -2.09      10.39      14.11
H      -2.24      10.57       5.57
H       8.61       4.51      11.27
H      -2.76      12.25       8.36
H       1.14       7.26       0.93
H       4.14       7.37       9.61
H      -0.00       6.93       2.28
H       2.43       7.11       2.96
H       2.43       8.80       2.45
H       0.64       9.31       4.17
H       2.08       8.61       4.95
H       0.63       7.61       4.67
H       6.18       9.77      17.22
H       4.99       9.54      18.55
H       4.85       8.26      15.76
H       3.68       8.00      17.06
H       7.70       2.17      11.39
H       3.09      10.46      17.02
H       2.85       9.73      15.42
H       4.28      10.73      15.73
H      -1.84      14.59       8.25
H       4.82       3.30       8.36
H       1.08      13.41      11.21
H       5.86       5.58       8.37
H       0.04      11.13      11.18
H      -1.82      16.33      10.12
C       8.39       8.42       7.17
C      -2.51       8.16      18.19
C       7.77       4.19      10.64
C      -1.91      12.56       8.97
C       7.27       2.89      10.70
C      -1.40      13.86       8.92
C       6.19       2.54       9.87
C      -0.31      14.20       9.73
C       5.66       3.52       9.03
C       0.23      13.20      10.55
C       6.23       4.79       9.02
C      -2.48       8.33      12.39
C      -0.34      11.93      10.55
C       4.37       0.75      10.01
C       1.52      15.99       9.61
C       5.96       9.22       9.75
C      -0.10       7.50       9.68
C      -0.78      16.61       9.96
C       6.66       0.12       9.66
C       0.17      15.59       9.76
C       5.71       1.14       9.85
C       4.48       9.41       9.65
C      -2.46       8.29      13.89
C       1.39       7.30       9.60
C       3.64       8.34       9.60
C       2.22       8.37       9.58
C       8.33       7.07      14.55
C       8.30       7.26       4.95
C       8.33       7.02      15.94
C       8.36       7.28       3.56
C      -2.46       8.18      16.71
C       8.53       8.49       2.86
C      -2.25       9.39      16.03
C       8.43       8.45       5.67
C      -2.31       9.67       3.61
C      -2.25       9.45      14.64
C      -2.36       9.66       4.99
C       0.71       7.67       1.86
C       1.79       8.00       2.87
C       1.26       8.40       4.24
C       5.43       9.08      17.65
C       4.37       8.74      16.62
C       3.60       9.99      16.18
C      -1.37       8.27      18.99
C       7.45       8.46       0.58
C      -1.13       8.72       0.76
C       7.21       8.01      18.81
C      -2.38       8.54       1.38
Br       2.99       2.01      10.38
Br       2.89      14.73       9.24
Br       2.03       5.52       9.55
Br       3.82      11.20       9.65
Br       8.09       5.34      16.79
Br       8.22       5.63       2.62
Br       0.35       8.47      18.18
Br       5.73       8.29       1.39
N       7.27       5.11       9.81
N      -1.40      11.62       9.78
O       8.19       7.29       7.72
O       6.10       7.85      18.03
O      -2.29       9.47      11.84
O      -2.41       9.52       7.77
O       8.30       7.23      11.78
O       6.33       8.00       9.77
O      -0.46       8.72       9.74
O       6.71      10.24       9.80
O      -0.85       6.48       9.69
O      -0.01       8.89       1.54
