136

Al       6.88       6.51      11.21
Al       0.81      14.10       0.07
Al       3.55       6.57      11.19
Al       4.14      14.04       0.04
H       3.24       3.98       7.92
H       4.45      16.63      19.07
H       1.01      17.82       2.02
H       6.68       2.79      13.16
H       3.69      16.62       3.15
H       4.00       3.99      14.29
H       3.32       0.17       5.34
H       4.37      20.44      16.48
H       0.60       1.07       7.59
H       7.08      19.53      18.73
H       0.56       2.98       9.20
H       7.13      17.63      20.34
H       7.38      20.51       5.76
H       0.30       0.10      16.91
H       3.30       2.16       6.24
H       4.38      18.45      17.38
H       3.52      18.59       4.66
H       4.17       2.02      15.80
H       5.08      10.93      10.02
H       2.60       9.68      21.17
H       5.27      13.60       6.17
H       2.42       7.01      17.31
H       5.15      12.80       8.36
H       2.54       7.81      19.50
H       6.26       7.86       4.76
H       1.42      12.75      15.90
H       6.54       7.63       2.35
H       1.15      12.98      13.49
H       5.44      13.28       3.74
H       2.24       7.33      14.88
H       6.54       8.45       0.17
H       1.15      12.16      11.31
H       6.29       0.61       3.48
H       1.40      19.99      14.62
H       1.85       7.23       9.64
H       5.84      13.38      20.78
H       5.22       7.20      12.79
H       2.47      13.41       1.65
C       1.90       4.73      12.78
C       5.79      15.88       1.64
C       1.88       8.43      12.73
C       5.81      12.18       1.59
C       5.22       8.30       9.52
C       2.46      12.31      20.66
C       5.21       4.71       9.63
C       2.48      15.90      20.77
C       5.22       3.58       8.66
C       2.47      17.03      19.81
C       4.11       3.33       7.84
C       3.57      17.27      18.98
C       4.15       2.30       6.91
C       3.54      18.30      18.05
C       5.28       1.46       6.81
C       2.41      19.15      17.95
C       6.38       1.72       7.65
C       1.30      18.89      18.79
C       6.36       2.77       8.56
C       1.33      17.84      19.70
C       6.66      19.13       3.41
C       1.03       1.48      14.55
C       6.77      17.97       2.62
C       0.92       2.64      13.76
C       4.53      17.31       3.26
C       3.16       3.30      14.41
C       4.43      18.41       4.09
C       3.26       2.19      15.23
C       5.49      19.33       4.21
C       2.19       1.27      15.35
C       5.36       0.36       5.86
C       2.33      20.25      17.00
C       5.37      20.43       5.16
C       2.32       0.18      16.30
C       5.71      17.06       2.55
C       1.98       3.54      13.69
C       5.24      11.76       8.04
C       2.45       8.85      19.18
C       5.27       9.41       8.51
C       2.41      11.20      19.65
C       6.12       9.70       1.92
C       1.56      10.91      13.06
C       6.28       8.60       2.78
C       1.41      12.01      13.92
C       6.11       8.73       4.14
C       1.58      11.88      15.28
C       5.76       9.97       4.74
C       1.93      10.64      15.88
C       5.69      11.11       3.87
C       2.00       9.49      15.01
C       5.52      10.15       6.17
C       2.16      10.46      17.31
C       5.39      11.49       6.66
C       2.29       9.11      17.80
C       5.38      12.60       5.75
C       2.30       8.01      16.89
C       5.49      12.42       4.41
C       2.20       8.19      15.55
C       5.40       9.12       7.15
C       2.29      11.48      18.29
C       5.20      10.74       8.96
C       2.49       9.87      20.10
C       5.86      10.95       2.47
C       1.83       9.65      13.61
C       6.25       9.49       0.46
C       1.44      11.12      11.60
C       1.01      20.19       3.23
C       6.68       0.42      14.37
Cl       5.30       7.42       6.78
Cl       2.39      13.19      17.92
O       3.03       8.00      12.41
O       4.66      12.61       1.27
O       0.75       5.13      12.42
O       6.94      15.48       1.28
O       6.34       5.12      10.05
O       1.34      15.49      21.19
O       0.76       7.90      12.47
O       6.93      12.71       1.33
O       6.35       7.85       9.90
O       1.34      12.75      21.04
O       3.01       5.25      12.44
O       4.68      15.36       1.30
O       1.88       6.60      10.38
O       5.81      14.01      21.52
O       4.07       7.93       9.91
O       3.61      12.67      21.05
O       4.08       5.19       9.97
O       3.61      15.41      21.11
O       5.21       6.61      12.02
O       2.48      13.99       0.88
O       6.05      10.34      21.89
O       1.64      10.26      10.75
O       2.15      20.01       2.80
O       5.54       0.60      13.94
