118

Zn       2.13       4.67       8.64
Zn       3.71       3.82       6.65
Zn      -8.64      12.24       8.84
Zn       8.50      13.31       6.91
Zn      -8.37       1.06      15.36
Zn       8.57      -1.02      15.40
H       4.71      10.34       6.32
H      -0.08       6.13       4.96
H      -1.39      -0.70       5.27
H      -0.47      -1.25       8.15
H      -0.78       1.33       8.10
H       5.45      -0.04      12.53
H       7.44       2.25      11.99
H       6.49       1.83       9.57
H      12.18       9.94       2.38
H       3.29       9.57       8.68
H      -5.80      10.57       5.83
H      -4.64      -0.59      13.45
H      11.73      -2.42      12.49
H      -3.27      -2.50      12.38
H      12.94      -2.44      10.52
H       7.86       8.18       7.53
H       5.54       7.63       5.97
H       0.49       7.42       1.65
H      -1.61       5.55       2.92
H       2.11       5.79       2.81
H       1.69       1.43       5.47
H       2.12      -0.02       3.72
H       0.38      -0.30       3.53
H       1.32      -1.30       4.67
H       3.53       1.11      12.20
H      -3.17      12.16       3.05
H      -3.82      13.81       4.47
H      -4.90      12.68       5.34
H      -5.48      13.51       3.88
H       9.72      11.64       4.44
H       9.13      12.21       2.25
H       9.81      10.62       1.80
H      10.84      12.07       1.75
H       6.42      10.54      10.68
H       5.76       6.77      10.61
H       8.04       6.59      11.36
H       7.58       8.32      11.40
H       8.52       7.67      10.03
C       1.82       5.24       5.49
C       6.83       8.46       7.77
C       5.56       8.19       6.91
C       4.76       7.78       8.18
C       0.14       6.66       2.35
C      -1.19       6.38       2.35
C       1.11       6.02       3.21
C       0.86       5.80       4.52
C      -0.87      -0.53       6.21
C      -1.05      -1.37       7.24
C       0.09       0.58       6.31
C       3.99       6.51       8.21
C       0.04       1.43       7.40
C       5.85       0.84      12.01
C       7.02       1.34      12.42
C       4.99       1.47      11.00
C       5.45       1.99       9.84
C      -7.66      11.42       6.55
C       7.30      11.09       7.84
C      -4.01      -3.62       9.95
C      -1.91      -2.57       7.23
C      -7.36      -0.73      13.76
C       4.62       2.75       8.88
C      -2.11       7.17       1.51
C      -4.11      10.37       1.73
C       7.79       0.75      13.54
C      12.56      10.63       3.13
C      -4.80      11.03       2.90
C      11.61      11.05       4.15
C      -6.75      11.00       5.52
C      -5.11      -1.40      12.88
C      -6.45      -1.57      12.96
C      -4.29      -2.27      12.06
C       1.00       2.49       7.64
C      -4.75      -2.77      10.90
C       4.30       9.26       8.40
C       5.09       9.68       7.10
C       6.36       9.96       7.94
C       5.57       9.54       9.26
C       6.06       8.03       9.06
C       1.21      -0.28       4.26
C      -4.59      13.05       4.35
C      10.03      11.58       2.31
C       7.71       7.44      10.74
N       0.99       0.70       5.31
N      -4.06      11.99       3.51
N      10.39      11.40       3.70
N       6.51       7.06       9.99
O       1.51       5.41       6.71
O       9.84      11.92       6.22
O       8.27      11.10       8.67
O       7.09      11.97       6.93
O      -3.04      -4.36      10.37
O      14.24      -3.55       8.75
O      -1.61      -3.46       8.08
O      15.78      -2.67       6.38
O      -6.97       0.43      14.17
O      10.15      -1.23      14.00
O      -1.76       8.35       1.18
O       2.87       4.62       5.06
O      15.44       6.61       1.14
O      -3.04      10.96       1.29
O      14.07       9.31       1.25
O       8.80       1.41      13.95
O       7.38      -0.38      14.02
O       3.00       6.38       9.04
O       4.38       5.62       7.40
O       3.64       3.43       9.33
O       4.96       2.70       7.63
O       0.77       3.31       8.62
O       2.04       2.58       6.88
O      -7.32      11.30       7.80
O       3.65       1.47      11.30
O       5.51      10.29      10.43
