158

Zn       3.83       5.64       7.69
Zn       2.35       3.39       7.69
Zn      -3.77       9.44       0.81
Zn      -8.43      -0.50      14.29
Zn       4.06      17.13       0.86
Zn      -3.93       9.38      14.45
H       3.98       3.21      11.94
H       6.99       3.85       8.34
H      -2.96       7.31      10.38
H       2.61       7.07      11.73
H       9.13      -4.83      15.05
H      13.94       1.98       0.10
H       9.58       5.05       0.48
H      -5.09       2.41      13.40
H      -3.63       4.39      13.61
H       0.60      14.04       3.18
H      -1.06      12.17       2.91
H       5.57       3.76       0.91
H      -2.04      13.21       1.84
H      10.78       2.40       9.76
H       9.81       1.88      11.92
H       7.08       4.43       1.60
H       0.76       8.44       9.09
H      -3.30       5.84       7.41
H       1.68       8.99      12.91
H       0.71       8.88      14.25
H       1.39       6.40      15.14
H      -0.23       6.35      14.77
H       5.79       5.41       3.50
H       2.01       4.67      13.25
H       3.49       5.35      12.92
H       2.52      -3.34      13.55
H       3.15      -4.88      13.53
H       5.64      -0.55      12.39
H       8.89       3.49       6.85
H      10.36       2.86       7.41
H      11.04       8.80       1.83
H      -1.18      15.63       1.47
H      -0.77      15.88       3.06
H       4.28       4.78       2.80
H       4.11       2.01      13.95
H       5.59       1.73      14.79
H       4.84       0.70       6.71
H       5.66      -0.58       5.97
H       8.05      -0.76       3.62
H       7.64      -0.60       5.26
H       0.78       4.74       3.80
H      -0.84       5.69       2.18
H      -0.35      10.52       4.41
H      -1.61       9.85       5.49
H       1.42       9.61       5.92
C       4.42       3.09       5.98
C       6.73       0.72       4.03
C       6.90       1.42       2.80
C       4.75       3.97       9.57
C       6.28       2.67       2.71
C       6.14       3.91       1.83
C       5.32       4.54       3.03
C       0.41       7.81       5.12
C       0.93       6.53       4.99
C       0.42       5.76       3.92
C      -0.51       6.29       3.03
C       7.02       3.12      10.38
C      -1.04       7.59       3.19
C      -0.58       8.32       4.27
C      -0.66       9.65       5.00
C       1.08       5.11       9.21
C       0.46       9.09       5.96
C       0.62       6.27      11.34
C       0.13       5.84      10.11
C      -1.19       6.23       9.79
C      -1.96       7.00      10.68
C      -1.46       7.40      11.93
C       5.63       3.37      10.62
C      -0.16       6.99      12.24
C       0.95       7.10      13.29
C       1.89       6.36      12.17
C       8.34      -2.20      14.89
C       1.93       5.93       5.91
C       7.90       1.45      13.74
C      -7.25       1.73      14.97
C      -1.95       8.12       2.14
C       2.41      15.20       0.20
C       7.74       0.92       1.69
C       5.04       3.02      11.81
C      11.17       1.88       0.13
C      -2.22       8.16      12.95
C       6.11      -3.35      14.96
C       7.50      -3.42      14.95
C       8.05      -4.71      15.07
C       7.61       3.40       9.12
C       7.24      -5.84      15.27
C       5.83      -5.74      15.26
C       5.30      -4.47      15.06
C       4.00      -3.69      14.93
C       5.78       2.46      12.88
C       4.94      -2.37      14.96
C      -0.16      12.52       0.89
C      -6.27       2.83      15.16
C      -5.22       3.08      14.25
C      -4.38       4.20      14.38
C       1.69      13.89       0.11
C       8.94       3.11       8.86
C       0.70      13.60       1.03
C      -0.00      14.14       2.27
C      -1.01      12.90       2.08
C       7.15       2.17      12.69
C       9.72       2.58       9.92
C       9.16       2.29      11.15
C       7.79       2.51      11.43
C       0.03       8.91       7.40
C      -1.71       5.95       8.42
C       4.72      -1.42      13.80
C      11.06       7.12       0.98
C       5.56       3.22       3.75
C       5.28       2.51       4.92
C       5.84       1.22       5.03
N       1.44       8.40      13.71
N       0.71       6.21      14.40
N       2.57       5.14      12.52
N       3.37      -3.89      13.64
N       9.53       3.40       7.63
N      -0.45      15.51       2.17
N       5.09       2.22      14.05
N       5.65       0.42       6.16
N       7.32      -0.52       4.29
O       4.66       4.29       6.33
O      -4.35       7.36      14.90
O       8.78       0.22       1.98
O       3.48       2.34       6.48
O       7.38       1.24       0.50
O      11.62       0.90       0.84
O       3.79      -6.86      14.91
O      -1.71       8.11      14.12
O      -3.29       8.81      12.67
O       5.05       5.14       9.12
O       3.77       3.27       9.19
O       9.37      -2.21      14.13
O       2.13       5.77       8.94
O       0.85       3.90       8.85
O       2.86       6.69       6.37
O       1.79       4.70       6.17
O      14.18       7.56       0.28
O      -1.12       8.95       7.81
O       1.10       8.68       8.20
O      -1.01       5.74       7.44
O      -3.07       5.96       8.35
O       3.64      -0.90      13.55
O       7.54       1.64      14.98
O       5.85      -1.21      13.09
O      10.91       6.53       2.04
O      11.12       8.48       0.91
O       8.84       0.66      13.42
O      -2.07      10.59       0.34
O      -6.98       0.79      14.13
O      -2.92       8.90       2.49
O      -1.70       7.76       0.95
O       3.48      15.27       0.92
