96

Zn       6.51       8.00       8.36
Zn       9.50       7.90       8.50
H       2.21      10.37       6.01
H      13.81       5.53      10.85
H       9.41       8.83       4.08
H       6.60       7.07      12.79
H       9.30       6.82      16.64
H       6.71       9.08       0.22
H      10.08       3.71       9.04
H       5.94      12.19       7.83
H       5.83       3.78       8.55
H      10.18      12.13       8.32
H       4.67      14.35       7.89
H      11.34       1.56       8.98
H       5.47       5.82       9.41
H      10.54      10.09       7.45
H       4.06       9.90       6.08
H      11.96       6.00      10.78
H      12.81      10.79       6.30
H       3.21       5.11      10.57
H       7.20       7.00      16.26
H       8.82       8.90       0.60
H       4.41       2.63       8.32
H      11.61      13.27       8.55
C       8.03      10.56       7.97
C       7.98       5.35       8.89
C       9.15       3.15       8.90
C       6.86      12.75       7.97
C       7.95       3.86       8.83
C       8.07      12.05       8.04
C       6.74       3.18       8.62
C       9.27      12.72       8.25
C       6.72       1.79       8.46
C       9.29      14.12       8.41
C       7.95       1.06       8.52
C       8.06      14.84       8.35
C       9.18       1.76       8.75
C       6.83      14.14       8.12
C       5.50       1.05       8.22
C      10.51      14.85       8.64
C       5.61      14.88       8.06
C      10.40       1.03       8.81
C       3.78       6.80       8.97
C      12.23       9.10       7.90
C       3.79       8.53       7.40
C      12.22       7.37       9.46
C       7.67       8.59      10.88
C       8.35       7.31       5.98
C       2.40       8.72       7.47
C      13.62       7.18       9.40
C       1.69       7.87       8.37
C      14.33       8.03       8.49
C       2.38       6.88       9.13
C      13.63       9.02       7.74
C       1.70       9.70       6.71
C      14.32       6.20      10.15
C      14.38       9.87       6.84
C       1.63       6.03      10.02
C       7.78       8.83      12.36
C       8.24       7.07       4.50
C       8.53       9.89      12.90
C       7.49       6.01       3.97
C       8.80       9.90      14.27
C       7.22       6.00       2.59
C       8.35       8.87      15.12
C       7.67       7.03       1.74
C       7.51       7.87      14.57
C       8.50       8.03       2.29
C       7.23       7.86      13.20
C       8.79       8.04       3.66
C       8.72       8.85      16.54
C       7.30       7.05       0.33
N       4.46       7.65       8.16
N      11.56       8.25       8.70
Cl       9.11      11.16      11.88
Cl       6.91       4.74       4.98
Cl       6.24       4.75       1.91
Cl       9.77      11.15      14.96
O       6.91       9.99       8.07
O       9.11       5.91       8.80
O       9.15       9.92       7.85
O       6.87       5.99       9.02
O       6.52       8.43      10.38
O       9.50       7.48       6.49
O       8.79       8.51      10.29
O       7.23       7.39       6.58
O       4.46       5.85       9.64
O      11.56      10.05       7.23
O       4.59       9.24       6.57
O      11.43       6.66      10.30
O      13.78      10.83       6.10
O       2.24       5.07      10.76
O       6.95       6.87      15.32
O       9.06       9.03       1.54
O       4.29       1.68       8.16
O      11.72      14.22       8.71
