72

Ga      12.03       6.60      10.69
Ga      18.04       4.08      10.69
Ga      15.03       5.34       9.43
Ga      15.03       5.34       1.26
H      10.52       4.64       9.98
H      10.52       6.05       0.70
H       7.52       4.64       0.70
H      19.54       6.05       9.98
H      16.39       5.34       5.34
H       7.37      10.69       0.00
H      22.69      10.68      10.69
H      13.67       5.34       5.34
H       8.08       5.98       3.27
H       8.08       4.71       7.41
H      17.09       8.62      10.05
H       5.07       2.07       0.64
H      12.97       2.07      10.05
H      12.97       8.62       0.64
H       9.96       5.98       7.41
H       9.96       4.71       3.28
C      17.48       5.34       5.34
C       8.46      10.69       0.00
C      15.59      10.69       0.00
C      12.58       5.34       5.34
C       5.45       5.86       2.88
C      17.47       4.83       7.81
C      14.47       8.22      10.17
C       2.44       2.46       0.52
C      15.60       2.46      10.17
C      15.60       8.22       0.52
C      12.59       5.86       7.81
C      12.59       4.83       2.88
C       6.16       5.63       4.17
C      18.19       5.05       6.51
C      15.18       9.52      10.40
C       3.16       1.17       0.29
C      14.88       1.17      10.40
C      14.88       9.52       0.29
C      11.88       5.63       6.51
C      11.88       5.05       4.17
C       8.28       5.34       5.34
C      11.29      -0.00      10.69
C      12.76      -0.00      10.69
C       9.76       5.34       5.34
C       7.56       5.68       4.19
C       7.56       5.01       6.50
C      16.58       9.53      10.35
C       4.55       1.16       0.33
C      13.48       1.16      10.35
C      13.48       9.53       0.33
C      10.48       5.68       6.50
C      10.48       5.01       4.19
O       6.07       6.55       2.00
O      18.09       4.14       8.68
O      15.08       7.34       9.48
O       3.06       3.34       1.21
O      14.98       3.34       9.48
O      14.98       7.35       1.21
O      11.97       6.55       8.68
O      11.97       4.14       2.00
O      10.52       5.32      10.67
O      10.52       5.36       0.02
O       7.52       5.32       0.02
O      19.54       5.36      10.67
O      16.33       5.31       2.77
O      16.33       5.38       7.92
O       7.31       8.11       0.04
O      19.34       2.57      10.65
O      10.73       2.57       0.04
O      10.73       8.11      10.65
O      13.73       5.31       7.92
O      13.73       5.38       2.77
