316

Gd       1.24       1.44      17.98
Gd       6.69      13.47      18.90
Gd       5.20      13.47      36.41
Gd       2.73       1.44       0.46
H       4.39      14.35       9.67
H       3.49       4.53      13.93
H       5.25       4.27      13.82
H       4.59       5.56       2.74
H       0.35       4.83      28.58
H       3.23       5.15      20.72
H       6.05       1.21      24.20
H       7.37       6.11      32.73
H       3.28      14.04      17.53
H       3.09       4.46      32.81
H       5.06       1.09      14.12
H       7.45       9.75       2.28
H       0.36       9.34      21.18
H       7.45      10.37      32.37
H       5.39      10.21      18.13
H       7.09       1.09       4.32
H       4.65       0.86      19.35
H       5.08       1.21      15.91
H       7.58      10.07       8.30
H       2.92       5.38      35.87
H       7.31      10.44      14.37
H       6.77       6.21      20.17
H       0.38      13.78       3.39
H       4.70       9.75      16.15
H       3.40       8.79      14.29
H       6.76      10.21       0.31
H       1.18      11.37       0.18
H       0.72       9.79      10.36
H       0.17       0.55      28.11
H       2.49       3.71      15.68
H       8.02       3.25       5.58
H       5.00       0.50       4.96
H       7.88       2.83      20.87
H       0.84      13.81      32.56
H       7.25       0.86      35.97
H       3.24       9.79       8.08
H       1.55       7.64      33.73
H       2.79      11.37      18.26
H       1.89      13.69      12.68
H       4.35       1.12      21.83
H       0.78      14.41      23.40
H       1.02      10.63      32.26
H       4.89       0.83      29.25
H       1.41       4.43      30.41
H       6.91       4.27       4.62
H       1.17       4.69      36.57
H       7.08       1.21       2.53
H       2.11      13.43       0.40
H       2.86      13.69      20.97
H       3.04      14.08       7.63
H       0.57       8.79       4.14
H       2.81       8.70       1.73
H       0.05      12.08      16.01
H       3.58      13.78      15.05
H       1.98      12.69      33.37
H       0.69      14.04       0.91
H       7.57       5.56      15.70
H       5.77       7.26      15.29
H       2.93      14.41      31.92
H       5.44      11.19      21.20
H       1.47       3.71       2.76
H       6.07       1.47      18.84
H       4.69       5.11      28.80
H       7.21       5.11      26.52
H       4.57      10.07      10.14
H       6.46      11.19      34.12
H       0.79       5.38      19.45
H       2.16       7.64      21.59
H       6.38       7.26       3.15
H       4.53       6.11      22.58
H       7.01       0.83      26.07
H      -0.09      11.66      31.29
H       1.86      13.43      18.04
H       0.85      13.69      34.34
H       2.87      13.81      22.76
H       3.92      12.08       2.43
H       0.92      14.08      10.81
H       4.02       2.83      34.45
H       3.80      11.66      24.02
H       6.76       3.53      36.70
H       5.82       1.47      36.48
H       5.01       9.52       1.01
H       3.54       0.55      27.20
H       5.64      10.48      11.97
H       0.48       5.15      34.59
H       5.85       1.21      31.11
H       0.62       4.46      22.51
H       3.36       4.83      26.74
H       2.08      13.69       5.76
H       2.68      10.63      23.06
H       7.55       1.12      33.48
H       4.44      10.37      22.95
H       4.13       3.25      12.85
H       7.16       0.50      13.48
H       7.14       9.52      17.43
H       5.14       3.53      18.62
H       2.30       4.43      24.90
H       1.73      12.69      21.94
H       5.95       2.21       3.50
H       3.34       9.34      34.14
H       4.84      10.44       4.07
H       0.48       4.53       4.51
H       5.13       6.21      35.15
H       2.54       4.69      18.75
H       7.76      14.35       8.77
H       6.52      10.48       6.46
H       6.20       2.21      14.93
H       1.16       8.70      16.71
C       0.91      11.90      10.74
C       4.27       3.77      13.81
C       0.05      11.13      32.25
C       7.95       0.12      20.99
C       5.56      12.03       5.37
C       3.35       2.66      26.82
C       1.69      11.69      11.94
C       1.03      10.58      36.32
C       2.22      10.46      35.59
C       2.93       0.57      32.11
C       5.00      14.33       4.77
C       7.52       2.19      33.29
C       3.55      12.71      14.86
C       2.27      11.69       6.49
C       3.38       8.15       0.98
C       0.03       3.94      28.03
C       4.24      11.82      15.69
C       2.83       6.98       0.43
C       7.44       5.03      32.85
C       6.80       7.92      18.86
C       3.03       3.39      32.62
C       1.40       1.47      24.07
C       7.16      14.33      13.67
C       7.92      11.82       2.75
C       3.31       6.29      36.31
C       0.74       2.90       2.61
C       7.53       3.47      17.42
C       1.52       6.52       0.84
C       5.12       4.15      23.34
C       5.61       6.44      15.99
C       4.44      13.82       3.59
C       2.67      10.58      19.00
C       3.23       2.90      15.83
C       1.10      12.16       4.66
C       7.97      10.42       2.97
C       4.56       1.71      28.71
C       3.31      11.43      35.86
C       3.55       2.48      33.53
C       0.04       9.65      36.07
C       4.43       4.11      28.44
C       4.46       5.03      22.46
C       3.49       1.08      33.28
C       6.24       3.22      24.93
C       2.45       6.52      17.60
C       4.58      12.25      10.05
C       0.78       0.57      23.20
C       3.67       9.65      19.24
C       4.38      12.43       3.35
C       1.17       2.43      29.68
C      -0.04       4.48      33.91
C       0.97      13.13      33.41
C       1.32       9.41      20.66
C       3.52       8.58      20.17
C       5.48       8.39      19.28
C       3.81       1.54      27.56
C       5.20       1.77      14.97
C       2.37       2.87      31.51
C       0.83       2.53      35.24
C       0.46      10.79      10.00
C       0.15       2.48      21.79
C       5.39      12.48      11.24
C       0.41      12.71       3.58
C       7.53       8.61      17.87
C       6.54       6.44       2.45
C       5.06      12.38      16.80
C       7.58      12.25       8.39
C       2.74      13.13      21.90
C       3.68       3.94      27.28
C       2.54       2.43      25.64
C       2.31       1.47      31.24
C       5.07       2.75      23.09
C       6.59      12.03      13.07
C       3.74       4.48      21.41
C       4.13      13.36       9.32
C       2.32       8.47      20.89
C      -0.10       1.54      27.76
C       4.88       3.00      29.18
C       0.18       8.58      35.14
C       7.89       5.25       0.81
C       8.03      13.36       9.12
C       1.34       2.87      23.81
C       2.86      12.16      13.78
C       6.61       5.49      16.21
C       2.88       2.53      20.08
C       5.62      13.43       5.64
C       7.75       6.32       1.73
C       5.71       4.44       1.29
C       5.26       4.32      17.88
C       3.37      13.19       8.17
C       0.36       2.66      28.49
C       0.40       6.29      19.00
C       7.78      12.43      15.09
C       2.82      10.75      13.54
C       1.39       8.47      34.42
C       4.25      10.96       9.59
C       7.19      12.00      34.26
C       4.19      10.42      15.47
C       6.78       4.15      31.97
C       6.96       1.77       3.46
C       5.55       5.49       2.23
C       0.50       9.87       4.02
C       7.34       1.71      26.61
C       6.44       4.44      17.15
C       3.94       0.12      34.33
C       1.49      10.46      19.73
C       3.69       3.08      21.18
C       4.62       8.61       0.56
C       1.15      10.75       4.90
C       0.01       3.08      34.13
C       2.39       9.41      34.65
C       4.41       6.32      16.71
C       6.76      12.48       7.20
C       4.62       3.47       1.02
C       5.66       3.22      30.38
C       3.50      10.79       8.44
C       0.58       8.15      17.46
C       6.83       2.75      32.22
C       6.41       8.39      36.04
C       7.89       3.77       4.62
C       7.72      13.82      14.85
C       3.47       9.87      14.41
C       7.25      11.51      14.18
C       7.47       4.11      26.88
C       0.22       1.08      22.03
C       4.55       6.75      35.90
C       3.06      11.90       7.70
C       3.99      14.78       2.55
C       7.90      10.96       8.85
C       6.90       4.32       0.56
C       4.38       2.19      22.02
C       7.02       3.00      26.14
C       4.26       5.25      17.63
C       0.68       3.39      22.69
C       3.66      11.13      23.06
C       7.10      12.38       1.64
C       4.91      11.51       4.25
C       0.40      11.43      19.46
C      -0.02      14.78      15.89
C       0.59      13.19      10.27
C       1.13       6.98      18.01
C       5.10       7.92      36.45
C       4.71      12.00      21.05
C       7.35       6.75      19.42
C       6.53      13.43      12.80
N       4.92       9.50      18.71
N       5.79       2.19      24.13
N       1.82      12.71       5.69
N       6.11       2.19      31.19
N       6.97       9.50      36.60
N       5.84       4.41      24.48
N       2.09      10.49      12.39
N       6.37      13.67       6.77
N       4.67       7.80      20.17
N       1.56       1.23      30.11
N      -0.03      12.08      33.35
N       3.01       5.40      18.16
N       3.74      12.08      21.96
N       0.96       5.40       0.28
N       6.29      11.46       6.39
N       1.65       3.44      30.49
N       5.87      11.46      12.05
N       1.88      10.49       6.05
N       3.27       7.10      16.71
N       7.23       7.80      35.15
N       2.14      12.71      12.75
N       2.15       1.23      25.21
N       2.06       3.44      24.83
N       0.70       7.10       1.73
N       5.78      13.67      11.67
N       6.06       4.41      30.83
N       7.96       2.83       3.52
N       4.20       2.83      14.92
O       5.61       0.67      19.20
O       0.68       1.31      35.61
O       4.65      14.02      34.04
O       2.32      14.24      17.68
O       3.03       1.31      19.70
O       0.83       2.10       1.65
O       7.80      14.57      17.11
O       7.30       2.50      18.25
O       7.45      11.34      20.00
O       7.26      13.59       1.27
O       0.63      12.40      18.63
O       0.68       0.89      15.60
O       1.72       3.25      35.82
O       0.49       3.57      16.87
O       4.85       2.50       0.19
O       4.90      13.59      17.17
O       1.99       3.25      19.49
O       4.45      11.34      35.31
O       3.13       2.10      16.79
O       0.13       0.33      19.76
O       5.94      11.65      17.38
O       3.08      12.40      36.69
O       4.80      12.80      20.08
O       7.25      14.02      21.28
O       1.65      14.24       0.76
O       6.28       0.67      36.11
O       6.21      11.65       1.05
O       7.10      12.80      35.23
O       4.35      14.57       1.32
O       3.48       3.57       1.56
O       3.58       0.33      35.55
O       3.28       0.89       2.84
