176

Zn      36.12      20.86       9.98
Zn       5.93       3.39       8.46
Zn      26.95      15.55      17.67
Zn      15.12       8.71       0.76
H      27.57      15.92      14.90
H      29.34      16.91      13.42
H      31.42      18.15      16.99
H      31.65      18.27      10.66
H      33.75      19.47      14.23
H      35.49      20.52      12.75
H      14.49       8.35       3.52
H      12.74       7.30       5.02
H      10.63       6.13       1.45
H      10.40       6.00       7.77
H       8.33       4.75       4.20
H       6.55       3.76       5.69
H      20.00      20.55      10.65
H      22.42      20.18      11.29
H      16.85      18.79      12.96
H      21.46      15.84      16.99
H      19.04      16.24      16.38
H      24.62      17.70      14.75
H      25.15       5.57       5.56
H      24.61       7.05       3.58
H      22.01       3.66       7.77
H      17.39       6.62       3.74
H      17.94       5.11       5.70
H      20.54       8.43       1.45
H      17.36      19.07       5.47
H      18.39      17.84       3.51
H      14.23      17.24       7.77
H      14.39      11.82       3.67
H      13.39      13.02       5.65
H      17.60      13.60       1.44
H      27.84       7.08      10.64
H      28.69       9.38      11.24
H      24.66       5.27      12.88
H      24.50      10.69      16.99
H      23.60       8.42      16.34
H      27.60      12.55      14.67
H      18.93      11.40       0.71
H      20.53      12.10       0.65
H      34.01      20.11       8.50
H      32.61      19.07       8.56
H      22.71      13.59      17.72
H      21.30      12.55      17.78
H       7.63       4.87       9.93
H       9.23       5.56       9.87
C      24.70       3.91       7.61
C      15.76      19.45       7.60
C      17.32      20.36      10.83
C      26.32       4.86      10.80
C      16.05      11.39       1.60
C      17.86       8.20       1.62
C      26.01      12.91      16.82
C      24.15      16.06      16.84
C      28.44      16.43      15.32
C      29.41      16.97      14.50
C      30.51      17.59      15.13
C      30.57      17.66      16.51
C      29.52      17.11      17.28
C      32.50      18.77      11.14
C      32.58      18.79      12.52
C      33.67      19.44      13.15
C      34.62      20.02      12.33
C      33.50      19.41      10.37
C      13.61       7.85       3.11
C      12.66       7.28       3.93
C      11.57       6.64       3.30
C      11.48       6.62       1.92
C      12.48       7.26       1.15
C       9.56       5.50       7.30
C       9.49       5.43       5.91
C       8.40       4.81       5.28
C       7.42       4.27       6.10
C       8.50       4.95       8.07
C      19.70      19.93      11.49
C      20.67      19.35      12.32
C      22.07      19.55      12.11
C      17.91      18.93      12.80
C      18.85      18.32      13.64
C      18.49      17.48      14.74
C      21.76      16.48      16.16
C      20.79      17.07      15.34
C      19.39      16.87      15.56
C      23.55      17.53      14.89
C      22.61      18.12      14.05
C      22.97      18.96      12.94
C      18.34      19.73      11.73
C      20.25      18.52      13.41
C      23.13      16.70      15.94
C      21.21      17.91      14.26
C      24.09       5.39       5.69
C      23.15       6.00       4.84
C      23.55       6.85       3.76
C      22.31       4.31       6.95
C      21.35       4.91       6.13
C      19.94       4.72       6.30
C      18.46       6.77       3.59
C      19.40       6.15       4.43
C      19.00       5.30       5.51
C      20.24       7.80       2.29
C      21.20       7.22       3.13
C      22.61       7.42       2.96
C      23.67       4.55       6.73
C      21.76       5.77       5.05
C      18.88       7.58       2.53
C      20.79       6.38       4.21
C      16.69      18.22       5.63
C      16.76      17.10       4.78
C      17.70      17.02       3.70
C      14.92      17.19       6.93
C      14.94      16.07       6.09
C      14.07      14.94       6.27
C      15.08      12.65       3.53
C      15.02      13.77       4.38
C      14.09      13.84       5.47
C      16.90      13.65       2.27
C      16.86      14.79       3.09
C      17.72      15.91       2.91
C      15.79      18.26       6.70
C      15.87      16.00       5.01
C      16.01      12.60       2.49
C      15.92      14.86       4.16
C      27.14       7.14      11.47
C      27.10       8.28      12.28
C      27.98       9.39      12.06
C      25.34       6.11      12.73
C      25.29       7.23      13.58
C      24.38       7.33      14.68
C      25.18      10.64      16.14
C      25.20       9.52      15.31
C      24.32       8.40      15.51
C      26.94      11.69      14.84
C      27.00      10.58      13.99
C      27.90      10.47      12.89
C      26.26       6.07      11.69
C      26.17       8.33      13.36
C      26.05      11.72      15.91
C      26.12       9.47      14.21
N      28.47      16.49      16.67
N      31.59      18.21      14.45
N      31.51      18.16      13.19
N      34.55      20.01      10.98
N      13.54       7.85       1.76
N      10.50       6.00       3.98
N      10.58       6.05       5.24
N       7.46       4.33       7.46
N      19.81      11.55       0.20
N      33.44      19.43       9.01
N      22.13      12.91      18.23
N       8.51       5.02       9.42
O      24.29       2.97       8.38
O      25.89       4.34       7.55
O      16.39      20.49       7.21
O      15.10      19.34       8.68
O      17.76      20.88       9.75
O      16.11      20.34      11.21
O      25.35       4.04      10.86
O      27.34       4.74      10.04
O      17.07      11.27       0.83
O      15.08      10.57       1.66
O      16.64       8.17       2.01
O      18.29       8.72       0.54
O      25.34      12.79      17.90
O      26.64      13.95      16.44
O      25.34      16.49      16.78
O      23.74      15.12      17.60
F      24.31      19.17      12.74
F      17.15      17.28      14.95
F      23.00       8.23       1.93
F      19.55       3.90       7.32
F      18.63      15.84       1.89
F      13.18      15.00       7.30
F      28.74      11.53      12.67
F      23.53       6.28      14.89
