162

Hf      -0.06       3.23       2.49
Hf       0.96       2.94      17.17
Hf      16.99       0.00       1.15
Hf       2.79       1.30       1.79
Hf      15.17       1.65      16.53
Hf       0.61      -0.28      15.82
H      11.87       0.93       6.74
H      12.11       0.75      11.04
H      15.66       0.16       8.67
H       2.30       2.60       9.72
H       5.77       1.94       7.24
H       6.15       1.87      11.53
H       5.34      12.31      17.11
H       9.62      12.83      17.22
H       7.05      16.22      16.48
H       9.88       4.12       1.66
H       7.23       7.42       0.82
H      11.49       8.07       1.04
H      -0.93       7.57      11.84
H      -1.05      11.85      12.40
H      15.43       9.22      15.69
H       0.46      12.74       6.54
H       0.49       8.47       5.90
H       1.29      11.15       2.62
H       2.65       4.00       2.58
H      15.01       1.94       1.59
H       1.02      16.30       0.44
H      -0.18       2.21      14.70
H      15.52      11.66      10.27
H       0.79       8.28      10.43
H       1.39       8.65       8.07
H      -1.28      12.03       7.91
H      10.72      10.02       1.96
H       6.41       7.91      16.60
H       6.08      10.31      16.15
H      10.39      12.41       1.51
H       9.82      -0.07       7.29
H      10.55       2.40      10.75
H       8.14       2.83      10.95
H       7.40       0.36       7.49
C      13.83       0.52       7.56
C      12.44       0.76       7.66
C      11.81       0.85       8.90
C      12.58       0.69      10.06
C      13.96       0.44       9.99
C      14.59       0.34       8.73
C       4.17       2.26      10.77
C       3.37       2.41       9.62
C       3.95       2.28       8.35
C       5.33       2.02       8.23
C       6.14       1.89       9.37
C       5.55       2.01      10.63
C       6.05      14.32      16.76
C       6.22      12.94      17.01
C       7.50      12.39      17.18
C       8.61      13.24      17.10
C       8.46      14.61      16.84
C       7.18      15.16      16.67
C      10.83       6.05       1.39
C       9.73       5.18       1.46
C       8.43       5.68       1.24
C       8.25       7.05       0.97
C       9.33       7.93       0.91
C      10.62       7.42       1.12
C      15.95       8.25      13.82
C      -1.09       8.45      12.47
C      -0.96       9.74      11.94
C      -1.19      10.84      12.78
C      -1.56      10.66      14.12
C      15.70       9.36      14.65
C       0.88      12.09       4.53
C       0.58      11.88       5.89
C       0.45      10.58       6.40
C       0.62       9.49       5.54
C       0.94       9.69       4.18
C       1.07      10.99       3.67
C      15.69       0.93       3.98
C       1.13       6.17       2.17
C       2.19       2.44       4.71
C      14.57       4.49       1.34
C       2.38       1.97      14.40
C      -1.82      14.20      16.08
C       4.91       3.68       1.16
C      -1.22       4.55      15.47
C      13.11      -0.80      17.00
C       0.63      15.83       2.96
C       2.34      15.96      16.93
C      15.69       0.35      13.65
C       0.93      13.42       4.02
C       0.89      14.56       3.59
C       1.14       7.49       2.74
C       1.07       8.54       3.35
C      15.54      12.88      15.50
C      15.65      11.82      14.92
C      15.92       5.82      14.84
C      15.90       6.94      14.36
C      -1.14      11.01       9.80
C      -0.59       9.94      10.53
C       0.32       9.09       9.88
C       0.66       9.30       8.54
C       0.10      10.37       7.82
C      -0.80      11.22       8.47
C      12.15       5.55       1.51
C      13.29       5.12       1.55
C       7.28       4.85       1.28
C       6.23       4.24       1.26
C       9.63      15.41      16.80
C      10.70      15.99      16.82
C       3.62      15.35      16.69
C       4.75      14.87      16.68
C       9.95      10.33       1.25
C       9.13       9.36       0.64
C       7.04       8.64      17.11
C       6.85       9.99      16.86
C       8.75      12.12       0.12
C       9.76      11.68       1.00
C       3.59       2.30      12.06
C       3.09       2.26      13.18
C       2.66       2.46       6.06
C       3.20       2.40       7.16
C      15.19       0.26      12.30
C      14.68       0.31      11.20
C      14.46       0.53       6.29
C      15.00       0.61       5.20
C       9.46       0.59       8.08
C      10.36       1.13       9.01
C       9.86       1.93      10.04
C       8.50       2.18      10.16
C       7.59       1.63       9.24
C       8.09       0.83       8.20
O      15.84       0.02       3.09
O       1.80       5.95       1.11
O       1.11       3.05       4.41
O      15.38       4.36       2.32
O      14.75       4.07       0.14
O       2.94       1.80       3.89
O       0.43       5.31       2.82
O      16.08       2.14       3.90
O       0.14       3.71       0.51
O       0.77       1.37       2.14
O       2.13       3.45       1.98
O      15.92       1.98       1.27
O       2.21       2.89      15.26
O      14.94      14.41      17.16
O       4.64       2.58       1.75
O      15.27       3.67      15.51
O      13.36       0.32      16.46
O       1.56      16.70       2.90
O       1.51      16.06      15.97
O      -0.61      -0.22      13.94
O       4.34       0.13       0.80
O      14.96       1.04      14.45
O       4.09       4.39       0.46
O      -0.54      15.93       2.46
O      13.87      17.05       0.40
O      -0.03       4.44      15.94
O       1.95       0.77      14.47
O      -1.09      15.04      15.44
O      16.18      -0.13      16.73
O       1.43       0.95      17.26
O       0.63      17.19       0.46
O      -0.20       1.82      15.59
