114

Zn      10.28      -0.49       0.95
Zn       3.01       3.86       7.91
Zn       4.59       5.89       7.82
Zn      -2.68      10.23      14.79
Zn      10.58      -0.10      14.79
Zn      -2.98       9.85       0.95
C       7.64       0.91       1.52
C       1.42       9.03      12.09
C      -2.18       5.03       5.80
C       5.41      -0.88       5.80
C       2.19      10.63       9.94
C       9.77       4.72       9.94
C       5.64       0.47       6.02
C       1.96       9.28       9.71
C       8.52       4.17       9.72
C      -0.93       5.58       6.02
C       8.40       3.58      12.09
C       5.88       1.34       4.91
C       1.72       8.41      10.82
C       7.73       3.72      10.82
C      -0.14       6.03       4.91
C      -0.81       6.16       3.65
C       6.17       0.72       3.65
C       6.81       1.51       2.64
C       0.78       8.24      13.10
C       7.80       2.77      13.10
C      -0.04       8.83      14.21
C      -0.20       6.97       2.64
C       6.94       2.86       2.83
C       0.66       6.88      12.91
C       6.51       2.32      12.91
C       1.08       7.42       2.83
C       8.58       2.12      14.21
C       6.40       3.53       3.96
C       1.20       6.22      11.78
C       5.74       2.68      11.78
C       1.86       7.06       3.96
C      -0.98       7.63       1.52
C       5.87       2.78       5.01
C       1.73       6.97      10.73
C       6.33       3.37      10.73
C       1.26       6.37       5.01
C       2.12       5.76       6.08
C       5.47       3.98       9.66
C       2.53       6.28       9.65
C       5.07       3.47       6.08
C      10.75       2.26       0.15
C      -3.16       7.49      15.59
C       8.03      -1.23      15.59
C      -0.44      10.98       0.15
C      11.53       3.46       0.14
C      -3.94       6.29      15.59
C       7.06      -2.28      15.59
C       0.54      12.03       0.14
C      12.26       4.44       0.05
C      -4.66       5.31      15.68
C       6.28      -3.23      15.69
C       1.31      12.97       0.05
C       5.84      -0.65       3.44
C       1.75      10.40      12.29
C       9.65       4.24      12.29
C      -2.06       5.51       3.44
C       5.43      -1.44       4.50
C       2.17      11.19      11.23
C      10.32       4.84      11.23
C      -2.73       4.91       4.51
Cl       1.19      17.15       1.86
Cl       7.27      -5.64      11.43
Cl      -7.25       5.67      11.43
Cl      14.84       4.08       4.31
Cl       0.33      15.39       4.31
Cl       5.77       0.96       7.65
Cl       1.83       8.79       8.08
Cl       8.07       3.92       8.08
Cl       6.41      -7.40      13.87
Cl      -0.48       5.83       7.66
Cl       6.42       5.24       3.89
Cl       1.18       4.51      11.85
Cl       4.08       2.24      11.85
Cl       3.51       7.50       3.89
Cl      -8.75       4.41      13.87
Cl      16.34       5.34       1.87
O       8.66       0.27       1.94
O       0.26       8.58      15.42
O       8.26       2.34      15.42
O      -0.66       7.40       0.32
O       7.34       1.16       0.32
O      11.11       1.35       0.98
O      -3.51       8.39      14.76
O       9.00      -1.36      14.76
O      -1.06       9.48      13.79
O      -1.40      11.10       0.98
O       2.99      -6.52      15.04
O       4.60      16.27       0.69
O      14.65       8.44       0.70
O      -7.06       1.31      15.04
O       9.45       1.28      13.80
O       3.12       6.43       6.52
O       4.47       3.31       9.22
O       2.13       5.15       9.22
O       5.47       4.60       6.51
O      -1.86       8.46       1.94
O       1.82       4.57       6.43
O       5.77       5.17       9.31
O       3.61       6.86       9.31
O       3.99       2.89       6.43
F       7.61       3.60       1.91
F       2.44      11.45       8.89
F      10.50       5.16       8.90
F      -2.91       4.59       6.84
F       5.16      -1.70       6.84
F      -0.01       6.15      13.82
F       5.96       1.49      13.82
F       1.63       8.25       1.91
