174

Zr      -3.01       3.78       6.37
Zr      12.58       1.74       9.25
Zr      14.35       0.72       6.37
Zr      -4.78       4.80       9.25
Zr      12.58       3.78       6.37
Zr      -3.01       1.74       9.25
H      14.35       2.76       4.40
H      11.56       4.37       8.95
H      14.35      -0.45       8.95
H      -2.00       4.37       8.95
H      12.20      -0.77      12.83
H      12.19      -2.21      14.83
H      -2.64       6.32       2.80
H      -2.62       7.72       0.78
H      12.20       6.32       2.80
H      12.19       7.72       0.78
H      -2.64      -0.77      12.83
H      -2.62      -2.21      14.83
H       8.21       1.51       9.55
H       5.74       1.52       9.58
H       1.36       3.99       6.05
H       3.82       4.01       6.05
H       1.36       1.51       9.55
H       3.82       1.52       9.58
H       8.21       3.99       6.05
H       5.74       4.01       6.05
H      -0.63      -1.93       9.55
H       0.60      -4.07       9.58
H      10.22       7.47       6.05
H       8.96       9.59       6.05
H      -6.77       8.71       9.55
H       1.56      -5.73       9.58
H      16.36      -3.17       6.05
H       8.00      11.25       6.05
H      10.19       2.84       2.80
H       8.97       2.15       0.78
H      -0.65       2.67      12.83
H       0.61       3.38      14.83
H      -2.79       6.38      12.83
H       8.01      -9.45      14.83
H      12.34      -0.87       2.80
H       1.57      14.97       0.78
H      -6.77       6.38      12.83
H       1.56      -9.45      14.83
H      16.36      -0.87       2.80
H       8.00      14.97       0.78
H      -0.63       2.84       2.80
H       0.60       2.15       0.78
H      10.22       2.67      12.83
H       8.96       3.38      14.83
H      12.34      -3.17       6.05
H       1.57      11.25       6.05
H      -2.79       8.71       9.55
H       8.01      -5.73       9.58
H      -0.65       7.47       6.05
H       0.60       9.59       6.05
H      10.19      -1.93       9.55
H       8.97      -4.07       9.58
C      -4.78       5.40       4.17
C       9.85       2.72       7.78
C      -4.78       0.21      11.51
C      -0.29       2.72       7.78
C      -2.50       1.44       4.17
C      -2.57       6.68       7.78
C      -6.99       4.04      11.51
C      12.06      -1.11       7.78
C      12.06       1.44       4.17
C      -2.50      -1.11       7.78
C      -2.57       4.04      11.51
C      -6.99       6.68       7.78
C      -4.78      -0.67      12.71
C      -4.78       6.24       2.94
C      13.14      -1.10      13.29
C      13.14      -1.91      14.41
C      -3.58       6.64       2.35
C      -3.58       7.43       1.21
C      13.14       6.64       2.35
C      13.14       7.43       1.21
C      -3.58      -1.10      13.29
C      -3.58      -1.91      14.41
C      14.35      -2.34      15.01
C      14.35       7.85       0.60
C       8.36       2.74       7.79
C       1.20       2.74       7.79
C       7.65       2.05       8.79
C       6.26       2.07       8.79
C       1.92       3.45       6.82
C       3.30       3.46       6.83
C       1.92       2.05       8.79
C       3.30       2.07       8.79
C       7.65       3.45       6.82
C       6.26       3.46       6.83
C       5.52       2.76       7.81
C       4.04       2.76       7.81
C      -1.77      -2.41       7.79
C      -7.76       7.96       7.79
C      -0.82      -2.69       8.79
C      -0.14      -3.90       8.79
C      10.40       8.22       6.82
C       9.70       9.42       6.83
C      -7.52       8.92       8.79
C      -8.23      10.11       8.79
C      17.10      -3.38       6.82
C      17.79      -4.59       6.83
C      18.76      -4.88       7.81
C       9.93      10.40       7.81
C      11.34       1.02       2.94
C      -1.81       4.48      12.71
C      10.39       1.87       2.35
C       9.70       1.47       1.21
C      -0.84       3.65      13.29
C      -0.14       4.05      14.41
C      -2.05       5.73      13.29
C      -1.34       6.14      14.41
C      11.59      -0.22       2.35
C      10.91      -0.62       1.21
C       9.94       0.22       0.60
C      -0.37       5.31      15.01
C      -7.76       4.48      12.71
C      -1.77       1.02       2.94
C      -7.52       5.73      13.29
C      -8.23       6.14      14.41
C      17.10      -0.22       2.35
C      17.79      -0.62       1.21
C      -0.82       1.87       2.35
C      -0.14       1.47       1.21
C      10.40       3.65      13.29
C       9.70       4.05      14.41
C       9.93       5.31      15.01
C      18.76       0.22       0.60
C      11.34      -2.41       7.79
C      -1.81       7.96       7.79
C      11.59      -3.38       6.82
C      10.91      -4.59       6.83
C      -2.05       8.92       8.79
C      -1.34      10.11       8.79
C      -0.84       8.22       6.82
C      -0.14       9.42       6.83
C      10.39      -2.69       8.79
C       9.70      -3.90       8.79
C       9.94      -4.88       7.81
C      -0.37      10.40       7.81
O      -3.65       5.06       4.65
O      10.44       2.06       8.71
O      13.21       0.55      11.03
O      -0.87       3.37       6.85
O      15.77       0.63       4.65
O      -3.43       6.50       8.71
O      -6.13       4.85      11.03
O      12.92      -0.93       6.85
O      11.79       2.60       4.65
O      -2.22      -0.28       8.71
O      -2.30       2.88      11.03
O      11.86       5.84       6.85
O      15.77      -0.93       6.85
O      -3.43       4.85      11.03
O      -6.13       6.50       8.71
O      12.92       0.63       4.65
O      -2.22       2.60       4.65
O      11.79      -0.28       8.71
O      11.86       2.88      11.03
O      -2.30       5.84       6.85
O      -0.87       2.06       8.71
O      13.21       5.06       4.65
O      10.44       3.37       6.85
O      -3.65       0.55      11.03
O      -2.79       3.91       8.62
O      14.35       0.46       8.62
O      12.35       3.91       8.62
O      14.35       2.76       5.37
O      12.88       1.92       7.21
O      -4.78       4.45       7.21
O      -4.78       2.76       9.60
O      -3.32       1.92       7.21
