129

Mg      -1.65      -0.35      19.17
Mg       0.75      16.79       9.27
Mg       2.91      -0.68      20.96
Mg       3.03      17.09      11.06
Mg       0.63       1.03      20.35
Mg      -1.53      18.49       9.91
H      -1.81      13.92      13.14
H       2.05      12.00      13.29
H       2.94      13.73      11.77
H      -1.64      11.97      14.38
H       1.07      10.50      14.51
H       4.21      10.32      14.92
H      -1.27       7.21      16.41
H       2.76       6.53      17.49
H       2.58       4.40      18.62
H       0.53       3.38      17.84
H      -0.38       5.55      17.10
H       1.07       8.86      15.95
H       0.47      21.87      11.62
H      -2.50      22.96      13.20
H      -1.61      20.78      12.46
H       0.64      23.93      12.69
H       3.36      24.78      13.88
H      -0.33      25.22      13.84
H       3.28      -6.85      15.79
H       0.48      -5.58      15.84
H       0.30      -3.54      17.12
H      -1.74      -3.71      18.39
H       4.17      -5.43      16.89
H       5.63      -8.08      14.58
H       2.75      16.58       5.48
H      -0.22      17.40       3.75
H       0.67      17.86       6.01
H       2.92      16.48       3.17
H      -1.20      17.09       1.84
H       1.94      16.83       1.48
H       1.01      -0.36      28.28
H      -1.79      -0.95      27.16
H      -1.97      -0.87      24.74
H       2.82       0.31      24.25
H       1.90      -0.12      26.49
H       3.37      -0.80      29.94
C       1.09      14.78      11.54
C      -0.28      14.83      11.95
C      -0.76      13.85      12.83
C       0.03      12.81      13.33
C       1.39      12.79      12.93
C       1.90      13.74      12.07
C      -0.58      11.79      14.17
C       0.00      10.68      14.66
C      -0.69       9.62      15.40
C      -2.07       9.54      15.44
C       3.90       8.55      16.05
C      -2.34       7.33      16.60
C       3.82       6.38      17.29
C       4.42       5.14      17.77
C       3.63       4.19      18.42
C       4.13       2.94      18.84
C      -1.32       2.63      18.61
C      -0.52       3.62      17.99
C      -1.04       4.83      17.58
C       3.21       2.02      19.53
C      -1.22      15.87      11.50
C       3.37      20.06      11.67
C       2.00      20.39      11.42
C       1.51      21.65      11.83
C       2.31      22.59      12.48
C       3.67      22.25      12.70
C      -2.66      21.04      12.30
C       1.70      23.83      12.94
C       2.29      24.82      13.66
C       1.60      25.99      14.20
C       0.21      26.06      14.26
C       1.63      -7.84      14.80
C       2.22      -6.75      15.59
C       1.55      -5.68      16.07
C       2.14      -4.65      16.90
C       1.35      -3.61      17.40
C       1.86      -2.62      18.27
C       3.23      -2.66      18.66
C       4.04      -3.69      18.11
C       3.51      -4.65      17.27
C       0.93      -1.57      18.72
C       1.06      19.48      10.74
C      -1.19      17.53       7.03
C       4.27      17.15       6.87
C       3.79      16.88       5.58
C       4.59      16.97       4.43
C      -0.89      17.32       4.62
C      -0.38      17.59       5.87
C       3.98      16.75       3.13
C       4.57      16.87       1.92
C       3.88      16.76       0.63
C       2.49      16.78       0.54
C      -0.64      -0.73      29.62
C      -0.05      -0.58      28.29
C      -0.72      -0.70      27.12
C      -0.13      -0.50      25.81
C      -0.92      -0.59      24.66
C      -0.42      -0.33      23.37
C       0.96       0.03      23.21
C       1.76       0.07      24.38
C       1.24      -0.18      25.63
C      -1.35      -0.46      22.23
C       3.34      17.02       8.00
O       2.03       2.38      19.83
O       3.62       0.83      19.80
O      -0.75       1.46      18.93
O       4.43      15.94      11.96
O      -0.81      16.72      10.60
O       1.65      15.65      10.69
O       2.65       8.75      16.07
O       0.08       8.72      16.02
O      -0.25      -1.48      18.26
O       1.35      -0.73      19.62
O       3.80      -1.79      19.51
O      -0.13      19.84      10.45
O       1.46      18.28      10.46
O       3.93      18.89      11.34
O       0.38      -7.92      14.63
O       4.64      -7.94      14.67
O       4.31      -0.91      22.39
O      -0.93      -0.11      21.06
O       1.53       0.33      22.04
O       2.15      16.59       7.83
O       3.74      17.37       9.18
O      -0.63      17.83       8.21
O      -1.89      -0.84      29.79
O       2.37      -0.79      29.78
