224

Zn      15.90      11.33      18.16
Zn       0.11       5.97      18.24
Zn       7.95       2.69       9.07
Zn       8.24      14.61       9.02
Zn      13.68       8.49      18.30
Zn       2.31       8.82      18.33
Zn       6.01      17.13       9.16
Zn      10.19       0.16       9.15
H      11.30       6.91       1.74
H       3.20       8.83      15.26
H       4.64      10.38       1.82
H      12.93       8.46      15.20
H       3.65      15.56      10.97
H      10.96       0.18       6.05
H      12.57       1.72      10.93
H       5.13      17.11       6.10
H       2.51       9.11       3.11
H      10.71      10.20      17.44
H      13.54       8.18       3.09
H       5.28       7.12      17.46
H      10.32       0.47      12.29
H       2.78       1.55       8.27
H       5.80      16.84      12.29
H      13.43      15.73       8.28
H      13.21       4.27      14.58
H       5.29      15.26       1.16
H       3.01      13.00      14.60
H      10.76       1.98       1.14
H       5.27      12.92       5.47
H      13.18       6.64      10.29
H      10.66       4.40       5.40
H       3.02      10.66      10.29
H       6.40      11.91       3.06
H      12.02       7.59      12.68
H       9.51       5.32       2.97
H       4.15       9.67      12.68
H      14.36       3.30      12.17
H       4.16      16.26       3.55
H       1.87      14.00      12.19
H      11.91       1.07       3.56
H       7.59      14.44       2.58
H      10.87       5.03      13.13
H       8.42       2.74       2.54
H       5.34      12.22      13.15
H      15.50       5.85      11.71
H       2.95      13.73       4.01
H       0.70      11.46      11.72
H      13.02       3.65       3.98
H      11.68      14.77      16.17
H       0.97       5.32       5.73
H       4.33       2.55      16.17
H      15.19      11.94       5.70
H       3.73       6.12       6.98
H       8.92      14.00      14.90
H      12.43      11.17       6.99
H       7.09       3.35      14.91
C      15.38      10.87       2.87
C       2.85       4.93      17.47
C       0.64       6.43       2.93
C      13.16      12.36      17.40
C       7.41       2.23      12.11
C      10.97      13.56       8.26
C       8.72      15.08      12.07
C       5.21       3.73       8.28
C      12.06       6.23       1.34
C       2.32       9.46      15.41
C       3.90      11.06       1.40
C      13.80       7.84      15.39
C       4.39      14.88      10.56
C      10.09       0.81       6.23
C      11.83       2.40      10.53
C       6.01      16.48       6.26
C      13.28       4.54       0.73
C       0.66      10.86      15.28
C       2.70      12.75       0.75
C      15.46       6.44      15.34
C       5.59      13.19       9.90
C       8.44       2.22       6.17
C      10.61       4.10       9.91
C       7.65      15.06       6.14
C       1.86       8.26       2.90
C      11.61      10.80      17.48
C      14.17       9.03       2.87
C       4.39       6.51      17.52
C       9.95      16.91      12.07
C       3.67       2.16       8.33
C       6.18       0.41      12.08
C      12.52      15.13       8.33
C      14.64      10.03       3.75
C       4.24       5.14      17.21
C       1.41       7.26       3.79
C      11.76      12.17      17.17
C       6.63       1.41      12.97
C      12.37      13.76       8.02
C       9.46      15.92      12.95
C       3.82       3.53       8.02
C      12.12       4.84       1.45
C       1.76      10.41      14.54
C       3.85      12.46       1.50
C      14.40       6.89      14.54
C       4.44      13.48      10.64
C       9.50       1.76       5.39
C      11.78       3.80      10.62
C       6.55      15.51       5.39
C       5.89      12.88       3.17
C      12.54       6.64      12.58
C      10.05       4.37       3.11
C       3.65      10.64      12.59
C      13.84       4.26      12.29
C       4.66      15.29       3.45
C       2.38      13.04      12.31
C      11.38       2.02       3.44
C      13.18       4.77      13.61
C       5.28      14.74       2.12
C       3.03      12.50      13.63
C      10.74       2.52       2.09
C       5.26      13.42       4.49
C      13.18       6.11      11.25
C      10.70       3.88       4.44
C       3.01      11.18      11.26
C      13.82       6.21      13.38
C       4.62      13.33       2.38
C       2.37      11.08      13.38
C      11.35       3.96       2.33
C       5.93      14.83       4.25
C      12.55       4.68      11.50
C      10.08       2.44       4.22
C       3.67      12.60      11.52
C       6.56      14.28       2.91
C      11.91       5.23      12.84
C       9.44       2.95       2.87
C       4.30      12.04      12.86
C      14.47       5.67      12.04
C       3.99      13.90       3.72
C       1.73      11.63      12.04
C      11.99       3.44       3.68
C       1.99       7.03       5.09
C      10.71      12.97      16.61
C      14.12      10.26       5.07
C       5.28       4.36      16.62
C       9.98      15.69      14.27
C       2.78       4.31       7.43
C       6.07       1.64      14.27
C      13.41      12.96       7.44
C       1.83       5.96       5.92
C      10.76      14.20      16.04
C      14.32      11.31       5.91
C       5.24       3.13      16.03
C       9.78      14.64      15.11
C       2.82       5.55       6.85
C       6.24       2.71      15.11
C      13.35      11.74       6.85
N      15.33      10.41       1.60
N       2.27       6.07      17.88
N       0.66       6.89       1.67
N      13.74      11.21      17.78
N       7.38       1.77      10.85
N      10.39      14.71       8.65
N       8.79      15.53      10.80
N       5.79       2.59       8.70
N      13.11       6.71       0.65
N       1.61       9.39      16.56
N       2.86      10.59       0.68
N      14.46       7.91      16.57
N       5.44      15.35       9.85
N       9.43       0.74       7.41
N      10.76       1.93       9.84
N       6.72      16.55       7.41
N      13.90       5.63       0.27
N       0.57      10.28      16.49
N       2.09      11.66       0.27
N      15.50       7.02      16.54
N       6.21      14.28       9.44
N       8.39       1.64       7.38
N       9.99       3.01       9.45
N       7.75      15.65       7.34
N       1.40       8.02       1.66
N      12.80      10.26      17.83
N      14.59       9.28       1.61
N       3.20       7.03      17.90
N       9.54      16.65      10.81
N       4.86       1.64       8.72
N       6.63       0.65      10.84
N      11.34      15.66       8.70
N       0.22      12.11       3.11
N       1.99       3.81      17.38
N      15.78       5.21       3.20
N      14.03      13.48      17.31
N       8.11       3.45      12.37
N      10.11      12.45       8.18
N       8.03      13.85      12.33
N       6.08       4.85       8.20
O       0.76      12.28       4.22
O       0.21      12.96       2.20
O       0.75       3.99      17.67
O       2.43       2.71      17.05
O      15.29       5.04       4.33
O      15.71       4.38       2.27
O      15.26      13.29      17.57
O      13.59      14.59      16.99
O       8.60       3.62      13.51
O       8.18       4.28      11.44
O       8.87      12.63       8.45
O      10.54      11.34       7.86
O       7.48      13.71      13.44
O       8.03      13.00      11.42
O       7.31       4.67       8.49
O       5.64       5.95       7.85
F      13.80       3.33       0.50
F      15.59      11.80      14.92
F       2.19      13.96       0.49
F       0.55       5.50      15.02
F       6.10      11.97       9.65
F       7.53       3.16       5.85
F      10.10       5.31       9.67
F       8.54      14.10       5.78
F       9.54      12.25      16.50
F       2.99       7.93       5.37
F       6.45       5.08      16.51
F      13.11       9.38       5.37
F       1.62       3.59       7.31
F      10.99      16.58      14.58
F      14.58      13.68       7.33
F       5.06       0.75      14.56
