132

Zr      19.01      10.63       5.46
Zr       6.13      12.76       8.22
Zr      20.71      13.72       5.37
Zr       4.44       9.66       8.30
Zr      19.04      12.69       8.33
Zr       6.09      10.69       5.34
H      17.94      13.22       5.79
H       4.44      11.74      10.24
H       7.06      13.34       5.60
H       4.38       8.46       5.72
H      14.32      12.77       8.72
H       6.32       8.24       1.31
H      10.52      22.17      12.04
H      14.86      19.93       8.66
H      16.88      11.24       1.86
H       8.86      11.77      11.30
H      16.50       6.83       5.26
H       9.90       3.38       0.44
H      11.00       2.05       0.07
H      10.75      12.23      12.41
H       9.33       2.37       2.14
H      17.88      15.56       3.47
H      10.94       1.63       2.27
H      14.08      11.26       0.23
H      15.51      20.50      12.44
H      15.63      10.40       0.21
H      13.68      22.27      13.36
H       5.05       9.12      12.09
H      13.94      21.88      11.64
C      16.31      11.54       7.04
C      20.81      14.38      10.42
C       8.82      11.64       6.77
C       4.28       9.19       3.11
C      18.38      12.87       3.24
C       2.11       7.80       6.97
C       6.73      10.51      10.45
C      22.91      15.64       6.82
C      18.56      15.60       6.89
C       6.36      12.99       3.02
C       6.73       7.87       6.87
C       2.17      10.30      10.52
C      11.17      10.89       6.02
C      13.98      12.16       7.90
C      10.28      11.56       6.84
C      14.84      11.50       7.04
C      12.63      11.92       7.52
C      12.52      11.08       6.39
C      19.81      15.71      12.39
C       5.28       8.05       1.05
C      20.85      15.24      11.61
C       4.22       8.48       1.83
C       5.21      16.52      13.56
C      20.25      16.44      13.51
C      23.27      14.61       1.08
C       1.61       8.61      12.36
C      23.46      13.43       1.78
C      17.88       9.81      11.70
C       8.90      22.78      13.46
C      16.35       9.62      13.61
C      18.02      17.97       6.03
C       7.39       5.59       7.82
C      17.89      16.90       6.92
C       7.51       6.62       6.90
C      16.42      18.81       7.50
C       9.02       4.77       6.35
C      17.50      14.58       1.59
C      16.76      12.26       1.48
C      15.87      12.51       0.46
C      16.24      23.00      13.55
C       7.15       9.07      12.50
C       8.60      10.98      12.00
C       9.33      10.82      13.16
C       8.64       0.52       0.35
C      17.53      13.28       2.09
C       7.48      10.17      11.69
C       8.11      17.34       7.80
C      16.80       6.19       6.09
C      23.60      16.93       6.89
C       1.33       6.56       7.00
C      16.29       4.91       6.39
C       8.61      18.63       7.53
C      10.50      11.75      13.37
C      18.03      15.74       2.40
C      15.53      20.49      13.54
C       5.81       8.39      12.39
S      11.10      12.45       8.10
S      14.05      10.59       5.79
S       5.96      15.71      12.24
S      19.11       8.05       1.20
S       8.24      12.44       1.05
S      16.63      10.81      12.40
S      16.74      17.26       8.18
S       8.68       6.31       5.65
S      15.12       3.86       5.68
S       9.80      19.66       8.23
O      16.88      10.87       6.11
O       5.49      14.07       9.92
O       8.26      12.35       7.68
O      19.61       9.46       3.65
O      19.29      13.67       3.66
O       3.01       7.96       7.87
O       5.92       9.65       9.96
O      22.06      15.47       5.88
O      18.27      14.77       7.83
O       6.72      11.85       3.49
O       6.96       8.67       5.90
O      18.31      11.46      10.08
O      21.96      13.79       3.55
O       5.88       8.03       7.81
O       3.08       9.53      10.06
O      19.36      15.39       5.92
O      18.16      11.71       3.75
O       6.80      14.78       7.71
O       6.96      11.66       9.94
O      18.28       8.61       6.02
O       5.44       9.48       3.58
O      16.89      12.25       7.94
O      19.66      14.00      10.00
O       8.23      11.03       5.81
O       4.38       9.38       6.04
O       6.29      12.87       5.94
O       4.40      11.72       9.27
O      18.75      12.79       6.09
O      20.77      13.39       7.41
O      19.36      10.81       7.50
O       5.84      10.88       7.39
O      20.74      11.67       5.04
F      10.82      10.13       4.97
F      18.51      15.50      12.14
F      14.22       1.28       1.40
F      10.68       3.69       4.97
F       8.55      16.61       8.84
