68

Al       0.07       8.59       0.00
Al       3.86       8.59       9.92
H       1.02       5.45       6.17
H       2.80       5.47       6.26
H       2.91       5.45       3.76
H       1.14       5.47       3.67
H       1.02       6.91      14.52
H       2.80       6.98      14.46
H       2.91      13.42       0.84
H       1.14      13.33       0.87
H       1.02      -3.77       9.08
H       2.79      -3.86       9.05
H       2.91      -1.68      10.29
H       1.14      -1.62      10.34
H       1.52      10.89       2.72
H       2.41      10.89       7.20
H       1.52       1.21      11.53
H       2.41       5.09       9.29
H       1.52       5.09       0.63
H       2.41      -7.39      13.27
C       2.03      -1.80      13.88
C       2.03       8.62       2.06
C       2.03       1.77      13.83
C       1.90       8.62       7.86
C       1.90       6.79      10.93
C       1.90      10.36      10.98
C       1.95       8.61       6.39
C       1.98       8.61       3.54
C       1.92       7.43       5.65
C       1.92       9.83       4.25
C       2.01       7.43       4.27
C       2.01       9.83       5.67
C       1.92       5.91       5.75
C       2.01       5.91       4.17
C       1.95       5.52      11.67
C       1.98       3.05      13.10
C       1.92       5.48      13.07
C       1.92       3.07      11.69
C       2.01       4.28      13.76
C       2.01       4.29      10.98
C       1.92       6.32      14.33
C       2.01      13.55       0.24
C       1.95      -5.54      11.71
C       1.98      -3.07      13.13
C       1.92      -4.31      11.05
C       1.92      -4.30      13.83
C       2.01      -3.12      11.74
C       2.01      -5.53      13.12
C       1.92      -3.64       9.69
C       2.01      -2.27      10.48
O       2.96       1.60      14.68
O       2.96      -0.97      13.60
O       2.96       7.97       1.48
O       1.13       0.89      13.55
O       1.13       9.31       1.44
O       1.13      -1.60      14.78
O       2.80       9.48      11.26
O       2.80       9.31       8.48
O       2.80       6.99      10.03
O       0.97      10.19      10.13
O       0.97       7.62      11.20
O       0.97       7.97       8.44
O       1.83      11.04       3.64
O       2.10      11.04       6.28
O       1.83       1.93      10.95
O       2.10       4.22       9.62
O       1.83       4.22       0.30
O       2.10      -6.67      13.86
