98

Al       0.17      28.98      25.09
Al       0.17      14.49      16.73
H       3.43      16.21      12.99
H       3.40      16.16      10.49
H       1.02      12.64      13.08
H       1.02      16.33       3.65
H       3.43      12.76       3.74
H       3.40      12.82       6.24
H       3.43      16.87      20.10
H       3.40      19.06      21.29
H       1.02      18.57      16.96
H       1.02      24.90      24.87
H       3.43      26.60      21.73
H       3.40      24.41      20.53
H       3.43      10.38      17.11
H       3.40      37.23      18.41
H       1.02      12.25      20.15
H       1.02      31.22      21.67
H       3.43      33.08      24.72
H       3.40      35.22      23.42
C       2.19      30.75      24.06
C       2.19      14.49       2.05
C       2.19      27.20      24.07
C       2.19      14.48      14.68
C       2.19      16.27      17.75
C       2.19      12.72      17.76
C       2.22      14.44      13.19
C       2.91      15.42      12.46
C       2.90      15.38      11.07
C       2.25      14.34      10.37
C       1.60      13.35      11.14
C       1.56      13.41      12.53
C       2.26      14.37       8.96
C       2.26      14.61       7.77
C       2.25      14.64       6.36
C       1.60      15.63       5.59
C       1.56      15.57       4.20
C       2.22      14.54       3.53
C       2.91      13.56       4.27
C       2.90      13.59       5.66
C       2.22      17.58      18.45
C       2.91      17.73      19.67
C       2.90      18.94      20.33
C       2.25      20.07      19.78
C       1.60      19.90      18.53
C       1.56      18.67      17.89
C       2.26      21.28      20.50
C       2.26      22.19      21.32
C       2.25      23.39      22.04
C       1.60      23.57      23.29
C       1.56      24.80      23.93
C       2.22      25.89      23.37
C       2.91      25.74      22.15
C       2.90      24.52      21.49
C       2.22      11.45      18.54
C       2.91      39.30      18.06
C       2.90      38.12      18.78
C       2.25      38.04      20.04
C       1.60      39.20      20.51
C       1.56      40.37      19.77
C       2.26      36.80      20.72
C       2.26      35.64      21.10
C       2.25      34.41      21.78
C       1.60      33.25      21.31
C       1.56      32.08      22.05
C       2.22      32.01      23.28
C       2.91      33.15      23.76
C       2.90      34.33      23.04
N       0.88      12.24      10.49
N       0.88      16.74       6.24
N       0.88      21.02      17.90
N       0.88      22.45      23.92
N       0.88      39.19      21.80
N       0.88      33.26      20.02
O       1.24      27.40      24.89
O       1.24      29.94      23.83
O       1.23      15.10       1.47
O       3.13      28.03      23.81
O       3.13      13.85       1.46
O       3.13      30.56      24.92
O       1.24      13.53      18.00
O       1.24      13.87      15.26
O       1.24      16.07      16.93
O       3.13      12.91      16.91
O       3.13      15.43      18.01
O       3.13      15.13      15.27
O       0.94      12.16       9.25
O       0.24      11.46      11.21
O       0.94      16.82       7.48
O       0.24      17.52       5.52
O       0.94      22.13      18.45
O       0.24      20.78      16.86
O       0.94      21.34      23.37
O       0.24      22.69      24.96
O       0.94      38.16      22.48
O       0.24      40.20      22.11
O       0.94      34.29      19.34
O       0.24      32.24      19.71
