204

Al      15.71       9.25      14.03
Al      14.24       6.39      14.06
Al      12.53       8.85      14.06
Al       8.79       2.93       0.02
Al       7.23       5.77      28.11
Al       5.52       3.30      28.09
H       9.62       7.96       6.36
H      15.35       5.60      22.40
H      15.22      10.63      22.27
H      10.95       8.11      22.08
H      12.12       7.38       7.54
H      14.08      10.08       7.40
H      15.43       6.88       7.30
H       5.27       4.91      21.63
H       6.95       2.14      21.51
H       8.41       5.11      21.38
H       8.51       4.14       6.92
H      15.76      11.99       6.17
H       6.05       2.64       6.87
H       6.12       5.43       6.75
H      15.52       8.03      20.90
H      12.99       9.56      20.82
H      13.01       6.65      20.72
H      13.48       3.68       7.41
H      10.13      10.75       7.37
H      18.10       9.98       7.36
H       6.52       8.36      21.93
H       3.36       1.52      21.93
H      16.23       4.52       5.97
H      10.71       2.30      21.91
H      11.96       2.23       6.66
H       2.73       0.60       6.66
H       6.12       9.28       6.71
H      18.56       9.89      20.42
H       9.86      11.32      20.42
H      13.05       3.07      20.44
H       2.84       4.28      20.32
H       8.67       0.34      20.17
H       9.15       7.44      19.97
H       8.31       6.54       8.47
H       8.30       1.62       8.32
H       4.08       3.95       8.12
H      17.73      10.21      14.75
H      10.54       1.66      27.35
C      13.70      10.53      12.20
C       3.64       6.33      22.62
C       6.55       0.04      22.53
C      10.42       5.84      22.41
C      11.41       5.36       6.58
C      12.63      11.69       6.51
C      17.57       7.35       6.45
C       4.52       6.93      20.66
C       5.54       0.50      20.59
C      10.55       4.67      20.51
C      11.30       6.68       7.41
C      16.19       6.91      12.17
C      13.86      11.14       7.28
C      16.46       6.53       7.18
C       4.43       5.59      21.46
C       6.77       1.08      21.35
C       9.43       5.47      21.23
C       9.72       5.56       4.52
C       6.61       0.94       4.43
C       4.41       5.91       4.32
C      16.86       6.70      18.52
C      13.44      11.35      18.44
C      12.02       6.67      12.28
C      11.29       6.09      18.33
C      10.97       6.07       9.93
C      13.59      11.70       9.83
C      17.08       6.37       9.74
C       3.98       6.15      23.98
C       6.57       0.43      23.88
C      10.09       5.72      23.78
C      13.70      10.47      15.96
C      16.15       6.97      15.98
C      12.07       6.70      15.88
C       6.73       1.60      26.25
C       6.75       1.74       1.91
C       9.16       5.19       1.95
C       5.17       5.47       1.83
C       9.19       6.20       7.91
C       7.56       1.03       7.78
C       3.96       4.91       7.62
C      16.24       5.98      21.88
C      14.44      11.20      21.77
C      10.84       7.14      21.61
C       9.91       6.99       6.77
C       9.18       5.26      26.23
C       7.85       0.02       6.62
C      16.91       5.23       6.46
C       3.08       5.24      20.76
C       7.72       0.08      20.63
C       9.84       6.77      20.47
C       9.51       5.46       3.32
C       6.65       1.24       3.26
C       4.69       5.76       3.15
C      16.59       6.76      17.34
C      13.54      11.03      17.27
C       4.99       5.46      26.33
C      11.57       6.30      17.17
C      11.38       6.28      11.06
C      13.61      11.24      10.95
C      16.73       6.55      10.89
C       4.37       5.90      25.11
C       6.62       0.88      25.01
C       9.74       5.57      24.94
C       9.29       4.89       7.07
C       6.32       1.59       7.00
C       5.08       5.72       6.89
C      10.58       5.90       8.58
C      16.32       7.31      21.07
C      13.22      10.61      20.99
C      11.97       6.34      20.88
C      10.00       5.68       5.90
C       6.62       0.59       5.80
C       4.08       6.03       5.69
C      17.12       6.58      19.91
C      13.44      11.66      19.82
C      10.97       5.97      19.70
C      10.67       4.57       7.72
C      13.58      12.13       8.48
C       5.40       0.53       7.67
C       4.62       7.02       7.62
C      17.66       7.68      21.78
C      12.27      11.60      21.72
C      11.57       5.05      21.65
C      17.44       6.22       8.38
S      12.88       4.89       5.65
S      18.03       9.29      22.39
S      10.69      11.13      22.37
S      12.74       3.93      22.36
S      11.48      10.61       5.63
S      17.24       8.92       5.64
S       6.01       7.60      19.99
S       4.21       1.47      19.96
S      10.39       3.02      19.91
S      11.16       3.05       8.45
S       3.85       0.85       8.44
S       5.67       8.16       8.46
O      16.34       8.11      12.53
O       7.90       1.87      26.65
O       8.43       6.17      26.75
O       4.64       4.31      26.76
O      16.48       8.05      15.43
O      12.88       5.90      15.29
O      12.62      10.21      15.31
O       9.41       4.03       1.52
O       6.06       6.25       1.35
O       5.64       2.07       1.35
O      14.88      10.22      15.58
O      13.00       5.95      12.68
O      15.39       6.04      15.49
O      11.71       7.85      15.46
O       7.90       1.85       1.42
O       8.57       6.14       1.31
O       4.72       4.42       1.27
O      14.15       8.15      14.06
O       7.14       4.00      28.10
O      12.52       4.42       4.36
O      13.85       5.94       5.84
O      13.41       3.55       6.42
O      12.58      10.07      12.67
O      11.26      11.10       4.31
O      11.88       9.26       5.90
O      10.05      10.88       6.38
O      17.69       8.87       4.29
O      15.90       9.30       6.00
O      18.27       9.96       6.37
O       6.64       6.67      19.10
O       5.70       8.94      19.53
O       6.92       7.68      21.29
O       4.68       2.48      19.06
O       9.44       4.12      26.71
O       3.18       0.54      19.52
O       3.74       2.20      21.28
O       9.31       2.90      18.99
O      11.72       2.57      19.53
O       9.94       2.27      21.24
O      12.52       3.23       8.93
O      10.13       2.60       9.33
O      11.16       2.03       7.21
O      10.27      11.76       8.90
O       3.99       1.96       9.34
O       5.89       6.22      26.84
O       2.96       1.38       7.22
O      18.79       9.26       8.90
O       6.49       7.45       9.38
O       6.64       8.67       7.29
O      17.02       9.70      23.32
O       5.48       9.29      22.80
O      17.86      10.17      21.09
O      10.85      10.04      23.28
O       3.08       0.17      22.81
O       9.97      10.56      21.08
O       5.63       1.96      26.81
O      13.57       4.63      23.29
O      12.01       2.75      22.81
O      13.63       3.56      21.11
O      14.84      10.37      12.70
O      15.55       5.99      12.81
O      11.60       7.74      12.84
O      17.13      10.26      14.00
O      10.22       1.95       0.07
