69

Al       0.80      10.84       9.01
Al       4.15      10.85       9.02
Al       4.39       4.89      18.02
Al       1.07       4.90      17.99
H       3.95      14.65       3.47
H       0.14      13.24       5.44
H       0.68       6.89      14.43
H       3.76       7.10      14.25
H       3.41       8.95      12.95
H       1.11      14.96       2.94
H       2.84      13.71       4.97
H       6.45       6.88      10.28
H       2.48      12.33       8.18
H       5.80       9.49      10.05
H       2.74      20.02      17.67
H       6.06       6.63      17.84
C       2.47       8.94       7.51
C       2.50       9.56      11.07
C       5.83      12.72      10.58
C       5.80      12.16       7.00
C       4.88      14.32       3.95
C       5.99      14.75       3.30
C       4.75      13.52       5.14
C       5.83      13.00       5.82
C       6.05      18.72      15.57
C       6.00      17.77      14.80
C       5.95      16.73      13.96
C       5.91      15.77      13.19
C       5.87      14.73      12.33
C       5.84      13.80      11.54
C       2.47       7.86       6.55
C       2.48       6.93       5.76
C       2.48       5.90       4.90
C       2.49       4.95       4.11
C       2.50       3.91       3.26
C       2.52       2.96       2.48
C       1.64       7.20      14.00
C       2.77       6.89      14.66
C       1.58       7.91      12.72
C       2.54       8.78      12.33
C       2.74       6.19      15.96
C       2.53       1.87       1.55
C       5.88      15.54       2.03
C       6.07      19.82      16.49
C       0.34       7.65      11.92
O       3.63       9.93      10.62
O       1.32       9.37       7.85
O       0.26      11.85       7.51
O       1.37       9.83      10.56
O       0.30      12.28      10.24
O       3.60       9.33       7.93
O       2.47      11.63       8.85
O       4.69      12.34      10.17
O       4.68      11.78       7.49
O       5.81      10.04       9.25
O       1.40       1.43       1.17
O       3.87       5.92      16.48
O       4.94      20.25      16.89
O       3.67       1.43       1.18
O       4.75      15.83       1.56
O       1.60       5.92      16.47
O       2.55      16.02       0.10
O       0.35      15.82       1.53
O       0.53      20.26      16.85
O       6.07       5.67      17.89
O       0.60      14.51       3.67
O       3.48      13.28       5.57
O       5.89       7.92      12.30
O       0.61       7.01      10.76
