147

Al       4.33      21.04      12.17
Al       0.34      35.08      20.29
Al       4.11       7.01       4.06
H       2.22      15.11      22.46
H       1.86      18.80      20.31
H       2.55      15.13      18.19
H       2.22      15.12       1.88
H       2.57      18.81       4.04
H       1.86      15.14       6.15
H       2.25      32.92      12.17
H       1.88      29.21      10.05
H       2.59      29.21      14.29
C       2.19      23.09      12.17
C       2.20      20.02      13.95
C       2.20      20.02      10.40
C       2.46      37.10      20.37
C       2.46      34.00      22.00
C       2.46      34.14      18.50
C       1.99       5.93       2.35
C       1.99       9.03       3.98
C       1.98       6.07       5.85
C       2.09      17.05      21.56
C       2.21      15.65      21.53
C       2.33      14.92      20.33
C       2.37      15.66      19.12
C       2.20      17.06      19.09
C       2.04      17.73      20.32
C       3.07      39.33      21.40
C       3.03      12.66      21.34
C       2.36      13.42      20.34
C       1.67      12.64      19.37
C       1.72      11.23      19.35
C       2.45      38.61      20.38
C       1.39      17.30      24.03
C       1.40       3.93       0.92
C       2.01       5.18       1.04
C       2.68      19.75      24.27
C       2.74      19.02      23.06
C       2.06      17.79      22.87
C       2.91      19.03      17.60
C       2.86      19.77      16.40
C       2.20      19.27      15.25
C       1.55      18.03      15.39
C       1.50      17.37      16.64
C       2.20      17.81      17.79
C       2.34      17.07       2.79
C       2.22      15.66       2.81
C       2.09      14.94       4.01
C       2.04      15.67       5.22
C       2.22      17.07       5.25
C       2.39      17.74       4.02
C       1.41      11.27       2.96
C       1.37      12.67       3.00
C       2.05      13.43       4.00
C       2.72      12.64       4.98
C       2.63      11.24       5.01
C       2.01      10.54       3.98
C       3.06      17.33       0.32
C       3.05      32.00      23.43
C       2.44      33.25      23.31
C       1.77      19.77       0.08
C       1.71      19.05       1.28
C       2.38      17.81       1.48
C       1.51      19.03       6.75
C       1.56      19.78       7.95
C       2.21      19.27       9.09
C       2.87      18.03       8.95
C       2.92      17.38       7.70
C       2.22      17.82       6.56
C       2.12      31.16      10.94
C       2.25      31.84      12.17
C       2.37      31.16      13.40
C       2.41      29.75      13.37
C       2.23      29.03      12.17
C       2.06      29.76      10.98
C       3.04      33.92      16.05
C       3.09      33.17      14.85
C       2.41      31.93      14.70
C       1.74      31.47      15.87
C       1.81      32.15      17.10
C       2.43      33.40      17.19
C       1.42      33.17       9.48
C       1.38       5.84       8.29
C       2.00       5.32       7.16
C       2.72      32.15       7.25
C       2.78      31.47       8.48
C       2.09      31.93       9.64
C       2.92      26.74      11.21
C       2.86      25.33      11.16
C       2.20      24.60      12.17
C       1.55      25.34      13.17
C       1.51      26.75      13.13
C       2.22      27.52      12.17
Cl       1.14      38.42      18.05
Cl       3.75      38.46      22.71
Cl       0.70      13.35      18.16
Cl       4.01      13.39      22.53
Cl       0.71       3.22       2.33
Cl       0.41      15.89      23.98
Cl       3.30       7.30       0.04
Cl       3.71      19.72      21.84
Cl       3.90      19.65      18.84
Cl       3.58      21.33      16.40
Cl       0.50      15.98      16.72
Cl       0.83      17.24      14.04
Cl       3.29      10.34       6.32
Cl       0.71      10.40       1.65
Cl       3.70      13.35       6.19
Cl       0.40      13.42       1.80
Cl       3.75      31.30      22.02
Cl       4.03      15.92       0.37
Cl       1.15      35.37      24.31
Cl       0.73      19.75       2.50
Cl       0.52      19.66       5.51
Cl       0.83      21.34       7.95
Cl       3.92      15.99       7.62
Cl       3.60      17.25      10.30
Cl       1.15      31.47      18.53
Cl       3.73      35.49      16.14
Cl       0.76      30.07      15.86
Cl       4.06      33.84      13.61
Cl       0.69       7.41       8.19
Cl       0.45      33.84      10.72
Cl       3.30       3.39       5.83
Cl       3.75      30.07       8.50
Cl       3.92      27.50      10.05
Cl       3.57      24.55       9.80
Cl       0.52      27.52      14.29
Cl       0.82      24.57      14.52
O       3.21      19.87      11.16
O       3.20      22.50      11.66
O       3.21      20.75      13.70
O       1.19      20.74      10.65
O       1.19      19.88      13.19
O       1.18      22.51      12.68
O       3.47      33.95      19.23
O       3.47      36.56      19.83
O       3.47      34.74      21.80
O       1.46      34.89      18.75
O       1.46      33.84      21.23
O       1.46      36.52      20.89
O       2.98       6.81       5.60
O       2.99       5.77       3.12
O       2.98       8.44       3.46
O       0.97       5.87       5.11
O       0.97       8.49       4.52
O       0.98       6.67       2.55
