154

Zn       3.97       7.83       8.81
Zn      -2.06      27.68       9.31
Zn      19.90      29.08      11.53
Zn      18.69      27.96       8.81
Zn      19.90       9.62       0.81
Zn       3.97      23.27      17.31
Zn      18.69      12.52       0.30
Zn      -2.06      12.24       0.81
H      27.07      17.89      18.52
H      27.06      15.70      17.33
H       4.05      17.74      13.62
H       4.05      19.92      14.83
H      27.06      11.87      15.21
H      27.07       9.68      14.00
H       4.05      11.71      10.31
H       4.05      13.91      11.51
H      -1.52      15.78       2.93
H      -1.51      17.97       4.13
H      18.14      18.39       3.37
H      18.15      16.20       2.16
H      -1.51      21.80       6.24
H      -1.52      23.99       7.45
H      18.15      24.41       6.69
H      18.14      22.23       5.48
H      16.69       8.03       2.93
H      14.60       7.36       4.13
H      12.92      11.26       3.37
H      15.01      11.91       2.16
H      10.95       6.19       6.24
H       8.86       5.54       7.45
H       7.19       9.42       6.69
H       9.27      10.09       5.48
H       7.19      24.22      14.83
H       9.27      24.88      13.62
H      10.95      26.31      17.33
H       8.86      25.65      18.52
H      12.92      26.04      11.51
H      15.01      26.71      10.31
H      16.69      28.14      14.00
H      14.60      27.48      15.21
C       6.66       7.04       7.86
C      22.23      27.38      12.24
C      27.49       9.26      11.37
C      17.22      27.86      11.37
C       1.64       7.53       6.98
C      20.25      25.64       7.86
C       3.62      20.34      17.47
C       1.64      24.98      16.60
C      17.21      10.41       1.75
C      20.25      14.56       1.75
C      22.23       9.93       2.63
C       6.66      24.50      17.47
C       0.80       8.14       5.87
C      23.07       9.31       3.74
C      23.55       7.46       5.32
C       0.32       9.99       4.29
C      22.77       8.04       4.29
C       1.10       9.42       5.32
C      23.07      26.76      13.36
C       0.80      25.59      15.48
C      22.77      26.98      14.72
C       1.10      25.37      14.11
C      23.55      26.41      15.76
C       0.32      25.94      13.07
C      27.49      19.04      16.75
C      27.25      17.85      17.45
C      27.25      16.63      16.79
C      27.49      16.58      15.39
C       3.86      17.78      14.69
C       3.86      18.99      15.37
C      27.49      15.34      14.71
C      27.49      14.27      14.12
C      27.49      13.03      13.44
C      27.25      11.83      14.14
C      27.25      10.61      13.47
C      27.49      10.57      12.09
C       3.86      11.76      11.38
C       3.86      12.98      12.05
C      -3.62      15.87       2.47
C      -2.43      16.37       3.03
C      -2.43      17.58       3.70
C      -3.62      18.33       3.83
C      19.06      17.82       3.27
C      19.06      16.60       2.60
C      20.25      19.56       4.51
C      20.25      20.63       5.10
C      20.25      21.87       5.78
C      -2.43      22.38       6.34
C      -2.43      23.60       7.01
C      20.25      24.33       7.14
C      19.06      23.83       6.58
C      19.06      22.62       5.91
C      15.97      10.01       2.47
C      15.85       8.73       3.03
C      14.70       8.35       3.70
C      13.63       9.26       3.83
C      13.75      10.56       3.27
C      14.91      10.92       2.60
C      12.45       8.89       4.51
C      11.43       8.56       5.10
C      10.25       8.19       5.78
C      10.12       6.90       6.34
C       8.96       6.53       7.01
C       7.90       7.44       7.14
C       8.02       8.73       6.58
C       9.17       9.10       5.91
C       7.90      24.89      16.75
C       8.02      24.68      15.37
C       9.17      25.04      14.69
C      10.25      25.64      15.39
C      10.12      25.86      16.79
C       8.96      25.48      17.45
C      11.43      26.02      14.71
C      12.45      26.34      14.12
C      13.63      26.72      13.44
C      13.75      26.50      12.05
C      14.91      26.87      11.38
C      15.97      27.46      12.09
C      15.85      27.68      13.47
C      14.70      27.31      14.14
Cl      23.05       5.91       5.87
Cl       0.82      11.54       3.74
Cl      21.44       7.09       3.74
Cl       2.43      10.36       5.87
Cl      21.44      27.95      15.23
Cl       2.43      24.40      13.60
Cl      23.05      26.78      17.37
Cl       0.82      25.58      11.47
O      -3.62      28.83       9.61
O       5.73       7.92       7.95
O      -1.30      27.13      11.04
O      27.25       8.22      12.06
O       6.61       5.86       8.33
O       3.86       9.29      10.11
O      21.24      28.10      12.58
O      18.14      28.41      12.06
O      25.17       6.38       7.41
O      17.26      27.62      10.11
O       2.63       8.20       7.41
O      -2.50      26.04       8.33
O      19.13      26.25       7.95
O       3.62      23.53      19.22
O      27.25      20.32      18.72
O       2.63      24.26      16.26
O      17.26      11.60       1.29
O       3.86      21.39      16.77
O      18.14       9.53       1.66
O      25.17      25.23      17.79
O      19.13      14.16       1.29
O      -1.30      11.07       2.20
O      -2.50      13.95       1.66
O      21.24       9.26       2.20
O       5.73      23.95      16.77
O       6.61      24.74      18.72
