65

Al       0.46      13.59       7.89
H       3.47       7.22       9.40
H       3.20      15.50       1.59
H       3.46      17.98      12.73
H       1.26      11.67       1.67
H       1.55      19.98       9.44
H       1.56       9.15      12.74
H       0.98      12.24      11.00
H       0.67      11.28      12.39
H       3.88      10.25       7.51
H       0.39       8.59       7.68
H       0.95      16.97       7.56
H       0.65      18.66       7.73
H       3.83      14.85      11.00
H       4.22      15.79      12.38
H       0.93      11.57       5.24
H       0.51      10.87       3.73
H       3.84      15.58       5.13
H       4.14      16.29       3.58
C       2.41      11.76       8.95
C       2.39      13.59       5.78
C       2.40      15.40       8.96
C       3.04       8.13       9.84
C       2.52       8.08      11.13
C       2.80      14.67       2.17
C       2.22      13.59       1.51
C       2.51      19.08      11.14
C       3.02      17.93      11.73
C       1.71      12.50       2.22
C       1.71      12.50       3.62
C       2.35      13.58       4.32
C       2.93      14.66       3.57
C       3.04      16.72      11.01
C       2.42      16.66       9.72
C       1.84      17.85       9.17
C       1.95      19.06       9.87
C       1.97       9.21      11.73
C       1.87      10.41      11.01
C       2.45      10.50       9.70
C       3.07       9.34       9.13
C       2.62      22.65      11.79
C       2.78      23.87      13.90
C       2.67      24.94      11.87
C       2.58      20.36      11.88
C       2.73      21.43      13.90
C       2.13      13.59       0.04
N       2.71      22.65      13.20
N       2.73      25.02      13.22
N       2.64      23.81      11.14
N       2.53      21.49      11.14
N       2.69      20.28      13.22
N       2.89      23.85      15.23
N       2.78      21.45      15.23
N       1.29      11.50      11.62
N       3.62       9.34       7.87
N       1.26      17.87       7.92
N       3.57      15.61      11.62
N       1.17      11.42       4.27
N       3.52      15.74       4.17
O       1.50      15.20       8.06
O       1.50      12.63       9.21
O       1.50      12.92       6.44
O       3.30      14.51       9.21
O       3.30      14.26       6.41
O       3.30      11.98       8.04
