46

Al       1.97      11.64       6.89
H       1.71      -6.13      13.15
H       0.88       2.46       5.57
H       0.44       7.43       1.77
H       0.37       7.53       6.74
H       0.68       5.36       5.54
H       2.33      -1.76       3.40
H       2.05       0.32       2.03
H       1.35      -1.94      10.50
H       1.01      -1.89      12.98
C       1.80      -4.06       8.94
C       0.03       9.94       5.74
C       1.81      -2.13       5.96
C       1.69      -4.06      10.43
C       1.72      -0.83       5.23
C       0.15       8.68       4.94
C       1.80      -5.24      11.19
C       1.62      -5.22      12.57
C       1.30       0.37       5.84
C       1.18       1.53       5.09
C       0.16       8.65       3.53
C       0.38       7.45       2.86
C       0.35       7.49       5.65
C       0.53       6.29       4.98
C       2.01      -0.83       3.86
C       1.85       0.32       3.10
C       1.43      -2.85      11.09
C       1.23      -2.82      12.47
C       1.33      -4.01      13.21
C       1.31       3.87       0.95
C       1.43       1.51       3.71
C       1.28       2.76       2.93
C       0.57       6.26       3.58
C       0.85       5.00       2.87
N       1.48       2.71       1.61
N       0.96       3.88       3.61
N       1.00       5.04       1.53
Cl       0.37       8.87      10.42
Cl      -0.04      10.09       2.60
Cl       0.99       0.48       7.54
O       2.76      -2.92       5.65
O       2.76      -3.41       8.42
O       0.92      10.09       6.63
O       0.90      -2.40       6.81
O      -0.94      10.73       5.52
O       0.89      -4.69       8.31
