64

Al      -2.70       8.19       8.69
Al       0.63       8.20       8.73
H       2.32       9.08      10.24
H      -1.01       7.31       7.18
H       0.20       4.20       8.30
H       0.10       1.70       8.31
H       4.29       1.55       9.31
H      -3.06      14.82       8.13
H       1.13      14.70       9.13
H       1.04      12.20       9.13
H      -3.08       8.62      12.67
H      -3.17       8.62      15.16
H       0.90       6.98      12.81
H       0.26       9.48       4.75
H       4.14       7.61       4.60
H       4.02       7.57       2.10
H      -2.14       5.10       9.24
H       3.40      11.27       8.16
C      -1.00       7.94      11.11
C      -1.07      10.63       8.70
C       2.22       8.44       6.31
C       2.32       5.75       8.72
C       2.30       4.29       8.77
C       1.09       3.60       8.50
C       1.03       2.23       8.52
C       2.19       1.49       8.81
C       3.40       2.14       9.08
C       3.47       3.54       9.06
C      -2.17      14.24       8.35
C      -0.97      14.90       8.63
C       0.21      14.17       8.92
C       0.15      12.79       8.93
C      -1.05      12.10       8.66
C      -2.23      12.84       8.36
C      -1.08       7.83      12.59
C      -2.23       8.26      13.26
C      -2.29       8.26      14.64
C      -1.20       7.80      15.41
C      -0.06       7.30      14.72
C       0.01       7.33      13.33
C      -1.24       7.87      16.82
C       2.03       8.43       0.61
C       2.08       8.51       2.01
C       1.03       9.07       2.78
C       1.09       9.06       4.17
C       2.20       8.52       4.83
C       3.27       8.01       4.08
C       3.21       7.99       2.70
N       2.26       0.08       8.85
N      -1.04      16.31       8.60
Cl       1.26       6.65      15.62
Cl      -0.33       9.76       1.99
O      -2.09       8.21      10.50
O       0.00      10.00       8.96
O       1.11       8.61       6.92
O       3.47       6.34       8.90
O       3.34       8.18       6.88
O       1.24       6.39       8.50
O       0.14       7.79      10.55
O      -2.20      10.04       8.48
O       2.30       8.76       9.32
O      -1.03       7.63       8.10
O      -1.99       4.11       9.33
O       3.24      12.26       8.08
