128

Cu       2.86       6.80       7.15
Cu       4.49       8.78       7.40
Cu      10.73      13.70       3.12
Cu      11.93      12.42       5.03
Cu      11.00      14.81       5.48
Cu       9.37      12.83       5.24
Cu       3.13       7.91       9.51
Cu       1.93       9.19       7.61
Cu       2.04       2.58       2.94
Cu      10.25       9.73       5.97
Cu       6.36       8.34      10.04
Cu       0.39       7.65       5.17
Cu      11.82      19.02       9.69
Cu       3.61      11.88       6.67
Cu       7.50      13.27       2.60
Cu      13.47      13.95       7.47
H      -0.53       6.08       2.99
H       9.19       8.68      10.06
H       2.81       3.89       0.54
H      11.37       7.15       6.17
H      14.40      15.52       9.64
H       4.67      12.93       2.58
H      11.05      17.72      12.09
H       2.49      14.46       6.46
H      14.50       4.30       3.08
H      10.03       9.99       9.16
H       5.99      11.10      11.64
H      12.98       6.89       6.91
H      -0.64      17.31       9.55
H       3.83      11.62       3.47
H       7.87      10.51       0.99
H       0.88      14.72       5.72
H       0.40       5.03       1.89
H      10.37       8.30       8.77
H       7.69      10.61      11.72
H      12.70       6.41       5.23
H      13.46      16.57      10.74
H       3.49      13.31       3.87
H       6.17      11.00       0.91
H       1.16      15.20       7.40
H       4.75       4.51       6.02
H       6.05       8.76       4.60
H      -3.84      11.91       0.55
H      -0.44      11.84       3.68
H       9.11      17.10       6.62
H       7.81      12.85       8.04
H      17.70       9.69      12.08
H      14.30       9.76       8.95
H       4.61       3.39       4.62
H       7.80       8.81       4.20
H       0.87      19.72      11.55
H       0.55      10.36       3.52
H       9.26      18.22       8.01
H       6.06      12.80       8.44
H      12.99       1.89       1.09
H      13.31      11.25       9.11
H      -1.58      17.18       6.16
H       6.93      10.31       4.50
H      -0.85      19.87      11.90
H       0.65      11.33       4.99
H      15.44       4.43       6.47
H       6.94      11.30       8.14
H      14.71       1.74       0.73
H      13.21      10.27       7.64
C       2.87       4.53       5.04
C       7.34       9.13       6.24
C      -3.71      13.99       0.12
C      -1.14      10.18       4.79
C      10.99      17.07       7.59
C       6.52      12.47       6.39
C      17.57       7.62      12.52
C      15.01      11.43       7.84
C       1.12       5.11       3.91
C       8.47       9.00       8.09
C       2.24       1.89       0.10
C      12.87       8.52       5.54
C      12.74      16.50       8.73
C       5.39      12.60       4.55
C      11.62      19.72      12.53
C       0.99      13.09       7.09
C       0.01       5.14       2.91
C       9.57       8.99       9.08
C       6.76      10.65      12.30
C      12.46       7.17       5.99
C      13.85      16.47       9.72
C       4.29      12.62       3.56
C       7.11      10.95       0.34
C       1.41      14.44       6.64
C       4.09       3.82       5.49
C       7.01       9.26       4.80
C       0.15      20.00      12.33
C      -0.04      10.98       4.21
C       9.77      17.79       7.15
C       6.86      12.35       7.83
C      13.71       1.61       0.30
C      13.90      10.63       8.42
I       3.13       9.11       5.21
I       4.86       6.05       8.61
I      -1.81      14.44       4.28
I       9.90      11.24       3.15
I      10.73      12.50       7.43
I       9.01      15.56       4.02
I      15.67       7.17       8.35
I       3.96      10.37       9.48
N       2.43       5.68       5.56
N       6.47       8.86       7.21
N      -3.80      14.42       1.38
N      12.81      10.64       5.02
N      11.43      15.93       7.07
N       7.39      12.75       5.42
N      17.66       7.19      11.25
N       1.05      10.97       7.61
N       2.06       4.14       4.01
N       8.61       9.25       6.75
N       6.18       8.22      11.92
N      14.12       8.85       5.12
N      11.80      17.47       8.62
N       5.26      12.36       5.88
N       7.68      13.39       0.72
N      -0.26      12.75       7.52
N       1.32       6.05       4.83
N       7.19       8.77       8.39
N       1.97       1.56       1.37
N      12.07       9.58       5.50
N      12.54      15.56       7.80
N       6.68      12.84       4.25
N      11.89      20.05      11.26
N       1.80      12.03       7.14
