130

Zn      -2.22       8.62       9.40
Zn      12.08       0.21       9.39
Zn      -2.54      11.81       9.39
Zn      10.64      -1.60       7.11
Zn      -3.98      10.00       7.11
Zn      10.32       1.59       7.09
Zn      -0.80      10.41       7.09
Zn       8.90      -0.20       9.41
H       3.50       9.64       8.54
H       5.54      -1.61       7.21
H      -2.83       5.05       7.18
H      10.93       5.16       9.32
H       2.56      11.82       9.29
H       3.06      13.41       5.32
H       5.03      -3.20      11.18
H      -4.24       4.13      11.14
H       4.60       0.57       7.96
H      12.34       6.09       5.35
H       3.99      11.23       4.56
H       4.11      -1.02      11.93
H      -1.90       3.69      11.87
H      10.00       6.52       4.63
H      -0.50       4.61       7.90
H       3.97      15.13       7.38
H       4.13      -4.92       9.12
H      -5.72       2.89       9.10
H      13.82       7.32       7.40
H       8.60       5.60       8.60
C      -5.20      12.44       8.25
C       4.70      -0.26       8.66
C       8.24      -2.83       8.22
C      -4.63       7.37       8.22
C      12.73       2.84       8.28
C      -0.14      13.04       8.28
C      -2.39      10.21       4.62
C      10.49       0.00      11.87
C      -2.38      10.21      11.87
C      10.48      -0.00       4.62
C      -1.32       4.51       8.60
C      -2.38      10.22      13.31
C      10.48      -0.01       3.18
C      -2.40      10.20       3.18
C      10.50       0.01      13.31
C       9.42       5.70       7.89
C      -2.38      10.21      14.54
C      10.48      -0.00       1.96
C      -2.39      10.20       1.96
C      10.49       0.01      14.54
C      -2.38      10.21      15.88
C       3.40      10.47       7.84
C      10.48      -0.00       0.62
C      -2.39      10.21       0.62
C      10.49       0.00      15.88
C       1.55       7.08       8.25
C       6.55       3.13       8.25
C       2.52       6.32       8.25
C       5.58       3.89       8.25
C       2.87      11.69       8.25
C       5.23      -1.48       8.25
C      -2.63       4.76       8.21
C      13.30      -2.23       8.25
C      10.73       5.45       8.29
C       2.73      12.76       7.35
C       5.37      -2.55       9.14
C      -3.70       4.63       9.11
C      11.80       5.58       7.38
C       3.17      12.59       6.03
C       4.93      -2.38      10.47
C      -3.42       4.22      10.43
C      11.52       5.99       6.07
C       3.68      11.37       5.60
C       4.41      -1.16      10.90
C      -2.11       3.98      10.84
C      10.21       6.23       5.66
C       3.79      10.32       6.50
C       3.57       5.49       8.25
C       4.31      -0.11       9.99
C      -1.07       4.14       9.93
C       9.17       6.07       6.57
C       2.94      15.20       7.74
C       5.16      -4.99       8.75
C      -6.03       3.88       8.74
C       4.53       4.72       8.25
C      14.13       6.33       7.76
C       7.26      -3.97       8.20
C       0.84      14.18       8.29
C      13.62       4.05       8.30
C      -5.52       6.16       8.20
C       5.95      -3.84       8.71
C       2.15      14.05       7.79
C      13.19       5.30       7.80
C      -5.09       4.91       8.70
C       0.43       7.98       8.25
C       7.67       2.23       8.25
C      -6.33      13.33       8.25
C      14.43      -3.12       8.25
C      -7.29      14.09       8.25
C      15.39      -3.89       8.25
C      -8.34      14.93       8.25
C      16.44      -4.72       8.25
Br       4.45       8.64       5.91
Br       3.64       1.57      10.58
Br       0.72       3.83      10.48
Br       7.38       6.39       6.01
O      -2.39      10.21       8.25
O      12.34      -2.54       7.47
O      -5.28      11.43       7.47
O      13.38      -1.22       9.03
O      -0.51       7.71       9.08
O       8.60       2.50       7.42
O       0.48       8.95       7.42
O       7.62       1.26       9.08
O      10.49       0.00       8.25
O      -4.87       8.27       7.34
O      12.97       1.94       9.16
O      -1.06      13.07       9.16
O       9.16      -2.86       7.34
O       0.01      12.16       7.37
O       8.09      -1.95       9.13
O      -3.74       7.43       9.13
O      11.84       2.78       7.37
O      -3.53      10.11       5.19
O      11.63       0.10      11.31
O      -2.56      11.34      11.31
O      10.65      -1.13       5.19
O      -1.25      10.30       5.18
O       9.35      -0.09      11.32
O      -2.21       9.08      11.32
O      10.31       1.13       5.18
O      -4.24      12.75       9.03
