62

Al       0.07      20.15      17.45
Al       0.07      10.08      11.63
C       2.09      21.90      16.42
C       2.09      10.09       2.03
C       2.09      18.38      16.45
C       2.09      10.06       9.60
C       2.09      11.84      12.64
C       2.09       8.32      12.66
C       2.04       8.99       4.38
C       2.04      11.16       7.25
C       2.04      10.08       3.52
C       2.04      10.07       8.11
C       2.06      10.77       5.89
C       2.06       9.38       5.75
C       2.04      16.90      14.32
C       2.04      13.33      14.76
C       2.04      17.10      15.69
C       2.04      13.13      13.39
C       2.06      14.70      15.11
C       2.06      15.52      13.98
C       2.04      24.49      16.20
C       2.04      25.89      12.89
C       2.04      23.20      15.68
C       2.04      27.18      13.40
C       2.06      24.90      13.90
C       2.06      25.47      15.18
S       2.03      11.59       4.38
S       2.03       8.56       7.26
S       2.03      15.60      16.57
S       2.03      14.62      12.51
S       2.03      23.18      13.95
S       2.03      27.19      15.13
N       1.95       7.60       3.99
N       1.95      12.55       7.65
N       1.95      17.93      13.32
N       1.95      12.29      15.77
N       1.95      14.76       0.15
N       1.95      25.54      11.49
O       1.15      18.58      17.29
O       1.15      21.08      16.17
O       1.15      10.72       1.44
O       3.08      19.14      16.22
O       3.08       9.51       1.49
O       3.08      21.72      17.19
O       1.15       9.15      12.91
O       1.15       9.43      10.19
O       1.15      11.65      11.80
O       3.08       8.51      11.89
O       3.08      11.08      12.86
O       3.08      10.64      10.15
O       2.13       6.78       4.90
O       1.69       7.34       2.81
O       2.13      13.37       6.73
O       1.69      12.82       8.83
O       2.13      17.55      12.14
O       1.69      19.09      13.68
O       2.13      12.67      16.94
O       1.69      11.14      15.41
O       2.13      15.97       0.40
O       1.69      13.88       0.97
O       2.13      24.33      11.23
O       1.69       6.27      10.66
