130

Zr      14.14      -1.13       8.16
Zr      18.66      11.15       5.44
Zr      10.61      -1.05       8.28
Zr      22.19      11.06       5.32
Zr      12.31      -0.11       5.31
Zr      20.48      10.13       8.29
H      12.41       1.10       7.87
H      20.39      12.09       3.39
H      17.70      10.63       8.05
H      23.27      10.51       7.89
H      10.54       1.51      11.89
H      14.81       1.32      11.62
H      22.25       8.37       1.81
H      17.98       8.58       2.07
H      18.40       5.00       9.27
H      14.52       4.95       4.24
H      10.09       2.42       0.80
H      22.55       7.70      12.92
H      23.91      -1.26      12.82
H       9.06      11.37       0.91
H      23.76       3.27       9.30
H       8.91       6.67       4.20
H      13.40      10.50       4.36
H      19.39      -0.29       9.11
C      14.65       1.69       6.60
C       9.98      -0.81       3.21
C      18.26       8.26       6.91
C      22.70      10.91      10.49
C      12.54       0.47      10.45
C      24.96      12.16       6.67
C      20.25       9.44       3.23
C       7.83      -2.01       6.83
C      10.05       1.75       6.79
C      10.17      -3.23      10.61
C      22.63       8.20       6.72
C      22.75      13.32       3.09
C      17.69       5.87       7.72
C      15.26       4.06       5.75
C      17.58       6.97       6.87
C      15.37       2.96       6.61
C      16.11       5.12       6.16
C      16.85       4.81       7.31
C       9.36       0.71       1.20
C      23.26       9.43      12.54
C       9.25      -0.44       2.00
C      23.38      10.57      11.74
C      15.94      13.74       0.03
C       8.50       0.63       0.07
C       8.49      -2.84      12.53
C      24.50      12.96       1.22
C       9.44      -3.58      11.83
C      15.37      -0.59       1.92
C       8.56      13.69       0.12
C      24.44      -3.56      13.64
C       8.32       3.44       7.69
C      24.32       6.48       5.78
C       9.27       2.99       6.78
C      23.37       6.93       6.70
C       8.37       5.21       6.14
C      24.26       4.71       7.32
C      11.51       1.81      12.29
C      13.94       1.70      12.14
C      14.05       2.52      13.24
C       4.73       7.25       0.28
C      21.28       8.08       1.41
C      18.86       8.19       1.56
C      18.75       7.38       0.45
C      28.06       2.64      13.42
C      12.65       1.34      11.66
C      20.14       8.54       2.04
C      13.71      11.63       5.86
C      19.08      -1.39       7.58
C       6.37      -1.99       6.77
C      18.25      -2.06       6.68
C      20.45      -1.60       7.27
C      12.35      11.86       6.15
S      16.45       6.70       5.56
S      16.52       3.22       7.90
S      16.27      12.70       1.36
S      16.34      -2.56      12.38
S      17.89       9.14      12.53
S      15.11       0.99       1.22
S       9.53       4.12       5.47
S      23.09       5.79       8.00
S      21.94      -1.09       7.97
S      10.85      11.35       5.46
Cl      25.33       2.74      13.53
Cl       7.47       7.17       0.15
O      14.95       0.87       7.54
O      17.85      12.34       3.71
O      17.93       9.09       5.99
O      14.86      -2.26       9.97
O      11.37       0.17      10.04
O      24.39      11.47       5.76
O      21.42       9.75       3.64
O       8.40      -1.35       7.76
O      10.90       1.59       5.84
O      19.16      10.19      10.14
O      21.81       8.38       7.69
O      13.73      -0.12       3.53
O       9.92      -2.09      10.09
O      22.88       9.02       5.78
O      22.96      12.15       3.57
O       9.84       0.95       7.76
O      13.65       0.11       9.92
O      16.58      11.58       5.93
O      19.15       9.84       3.73
O      16.21      -1.48       7.61
O      21.86      10.07      10.02
O      13.77       1.51       5.69
O      10.86       0.00       3.64
O      19.11       8.46       7.84
O      22.47      10.97       7.57
O      18.49      11.06       7.71
O      20.41      12.11       4.36
O      12.38       0.18       7.56
O      10.85      -1.26       6.23
O      13.78      -1.33       6.13
O      20.43      10.45       6.24
O      12.36      -2.11       8.60
O      18.51       5.85       8.81
O      14.43       4.09       4.68
O      10.19       1.74       1.49
O      22.45       8.39      12.24
O      24.56      -1.58      12.17
O       8.42      11.70       1.57
O      24.40       2.74       8.79
O       8.25       7.19       4.70
O      14.17      10.87       4.84
O      18.63      -0.65       8.61
