137

Zn       6.65       7.35       8.53
Zn       4.03       6.67      10.25
Zn       4.01       9.04       8.14
Zn       5.75       9.34      10.87
H      -3.57       9.44      12.77
H       8.16       3.65       8.22
H       0.67       5.99       6.47
H      12.00       9.75      13.31
H       9.58       9.56      12.69
H      -1.80       8.69      11.27
H      12.05       6.89       7.90
H      -0.64       6.25       4.32
H      -2.32       6.85       4.45
H      14.73       4.60       3.67
H      15.82       5.33       2.46
H       5.54       9.03      15.09
H      -1.50       4.02       3.52
H       3.69       9.85      18.49
H       4.61      10.70      17.22
H       6.61      10.81      18.77
H       8.25      14.10       0.65
H       8.73      12.47       1.19
H       8.15       7.71       4.63
H       2.50       6.17      14.06
H       3.72      -0.37       9.10
H       3.35       0.76      10.43
H       8.68       8.04       2.18
H       3.34      -1.10      12.08
H      -2.37      17.16      10.75
H      -0.76      16.38      10.81
H       4.15      15.59      11.93
H       0.38      15.49       8.42
H       0.97      14.27       7.25
H       1.03      16.05       5.46
H      -0.61      15.88       6.14
H       0.42      17.25       6.63
H       8.97       1.27       8.29
H       4.97      10.15       1.67
H       3.75      12.06       5.86
H       4.94      12.42       7.12
H       4.94      14.86       6.42
H       5.42      13.78       5.08
H       3.78      14.48       5.14
H      13.82       5.87       6.54
H      12.07       9.44       7.51
H      10.54      10.29       7.89
H       9.32       8.83       6.24
H      10.64       9.74       5.44
H       1.98       5.87      16.51
H      10.86       8.01       5.83
H       4.48       9.88       4.13
H       4.57       2.47      10.26
H      -0.39       8.11      10.05
H       4.76      13.17      11.63
C       4.38       7.77      12.98
C      13.10       7.06       8.15
C      14.08       6.49       7.39
C       5.98       8.62       5.97
C      -2.46       6.68       7.69
C      -2.10       7.42       8.86
C      -1.44       6.15       6.86
C      -0.10       6.38       7.13
C      -0.72       7.58       9.16
C       6.29       8.78       4.52
C       5.39       9.48       3.69
C      10.37       9.28      11.99
C       5.66       9.63       2.34
C       6.85       9.10       1.80
C       7.76       8.43       2.63
C       5.85       4.60       9.22
C       7.47       8.25       3.97
C       4.55       8.11      16.76
C       4.78       8.32      15.40
C       3.54       7.19      17.15
C       4.06       7.60      14.43
C       3.05       6.71      14.83
C      10.98       8.51       9.76
C       2.77       6.54      16.17
C       3.95      13.04       9.65
C       3.32      13.74       8.59
C       2.97      15.10       8.76
C       4.26      11.58       9.60
C       3.31      15.77       9.96
C       3.93      15.06      11.00
C       4.26      13.73      10.84
C       5.98       0.87       9.91
C       5.53       2.19       9.83
C      12.36       8.44      10.14
C       7.26       0.55       9.36
C       6.32       3.19       9.24
C       7.57       2.87       8.69
C       8.02       1.56       8.73
C       1.69       7.33       8.60
C       8.55       8.69      10.38
C      10.00       8.84      10.70
C       0.25       7.09       8.29
C      11.70       9.37      12.33
C      -1.69       5.94       4.49
C      12.71       8.95      11.43
C      15.77       4.91       3.47
C       4.71      10.04      18.10
C       8.66      13.13       0.32
C       3.84      -0.19      10.18
C       3.27      -1.32      11.00
C       0.97      15.34       7.50
C       0.42      16.19       6.37
C       4.12      12.85       6.53
C       4.59      14.07       5.75
C      10.97       9.34       7.53
C      13.40       7.86       9.31
C      10.41       8.95       6.18
C      -3.15       7.97       9.70
C      -2.84       8.59      10.95
C      -3.83       9.02      11.79
N       7.22       9.24       0.44
N       3.19       6.95      18.49
N       2.96      17.10      10.21
N       7.78      -0.74       9.25
O       5.10       8.11       9.47
O       2.15       6.79       9.66
O       7.72       9.48      10.95
O       2.34       8.06       7.78
O       8.24       7.74       9.59
O      -1.83       5.35       5.80
O       5.30       8.79      17.69
O       5.26      -0.13      10.47
O       2.33      15.78       7.76
O       3.00      13.17       7.39
O      10.59       8.29       8.46
O       6.52       5.40       8.49
O       5.08      11.14      10.48
O       3.86       6.91      12.19
O       4.90       9.14       6.38
O       5.14       8.75      12.65
O       6.83       7.97       6.67
O       4.81       4.90       9.91
O       3.66      10.87       8.72
