124

Zn      16.45       1.11      11.04
Zn      13.68       1.59      11.55
Zn       6.78      11.34       2.33
Zn       9.55      10.87       1.82
H      15.13       8.60      12.15
H      15.03       0.97       3.98
H       8.09       3.85       1.22
H       8.19      11.49       9.39
H      13.81       6.32      12.17
H      16.33       0.80       6.27
H       9.41       6.13       1.20
H       6.90      11.65       7.10
H      21.08       9.59      10.96
H       9.08       2.21       3.01
H       2.14       2.87       2.41
H      14.14      10.25      10.36
H      19.74       7.31      11.07
H      10.40       1.95       5.29
H       3.48       5.15       2.30
H      12.82      10.50       8.08
H       7.25       2.25       9.33
H       9.00       3.37      10.51
H      15.97      10.21       4.04
H      14.22       9.08       2.86
H       4.75       2.04       9.24
H      11.50       3.45      10.73
H      18.47      10.41       4.14
H      11.72       9.01       2.64
H      18.50       0.19      12.93
H      11.62      -0.34      12.37
H       4.73      12.27       0.45
H      11.60      12.80       1.00
H       7.10       0.27      13.18
H       9.15      -0.59      12.28
H      16.12      12.19       0.19
H      14.07      13.04       1.09
C      19.52      12.04      11.23
C      10.66       2.09       0.56
C       3.70       0.42       2.14
C      12.57      10.37      12.81
C      15.30       3.92      11.40
C      14.82       1.42       8.70
C       7.93       8.53       1.97
C       8.40      11.04       4.67
C      15.62       5.35      11.47
C      14.50       1.44       7.27
C       7.60       7.10       1.90
C       8.72      11.02       6.10
C      16.88       7.49      11.42
C      13.27       1.62       5.12
C       6.34       4.97       1.95
C       9.96      10.84       8.25
C      19.18      10.61      11.19
C      10.99       2.04       1.99
C       4.04       1.84       2.18
C      12.23      10.41      11.38
C      15.56       7.65      11.84
C      14.59       1.22       4.95
C       7.67       4.81       1.53
C       8.63      11.24       8.42
C      14.85       6.43      11.86
C      15.29       1.12       6.17
C       8.38       6.02       1.51
C       7.93      11.34       7.20
C      17.91       8.48      11.30
C      12.24       1.80       4.12
C       5.31       3.97       2.07
C      10.98      10.65       9.25
C      20.00       9.51      11.07
C      10.16       2.09       3.09
C       3.22       2.95       2.30
C      13.06      10.37      10.28
C      19.28       8.30      11.13
C      10.87       1.96       4.31
C       3.94       4.16       2.24
C      12.35      10.50       9.06
C       6.71       1.79      10.15
C       9.54       2.52      10.93
C      16.51      10.67       3.22
C      13.68       9.93       2.44
C       5.32       1.67      10.08
C      10.93       2.58      11.05
C      17.90      10.78       3.29
C      12.30       9.88       2.32
C       5.26       0.61      12.15
C      10.99       0.46      11.99
C      17.97      11.85       1.22
C      12.23      11.99       1.38
C       6.64       0.67      12.28
C       9.61       0.33      11.93
C      16.59      11.79       1.09
C      13.61      12.12       1.44
C       7.39       1.28      11.27
C       8.86       1.38      11.38
C      15.83      11.18       2.10
C      14.36      11.08       2.00
S      17.52      10.16      11.36
S      12.65       1.85       2.44
S       5.70       2.29       2.01
S      10.58      10.60      10.93
S      17.23       5.83      11.06
S      12.90       1.87       6.79
S       6.00       6.62       2.31
S      10.32      10.59       6.58
N       4.61       1.10      11.07
N      11.64       1.56      11.57
N      18.61      11.36       2.30
N      11.58      10.89       1.80
O      20.75      12.37      11.16
O       9.43       2.18       0.23
O       2.47       0.09       2.21
O      13.80      10.27      13.14
O      14.12       3.56      11.73
O      16.00       1.06       9.05
O       9.10       8.90       1.64
O       7.22      11.39       4.32
O      13.83      -0.46      11.37
O      16.29       1.17      13.12
O       9.39      12.91       2.00
O       6.93      11.28       0.25
O      16.25       3.16      11.01
O      13.87       1.75       9.49
O       6.98       9.30       2.36
O       9.35      10.71       3.88
