136

Zn       7.65      12.49       8.15
Zn      -2.37      -2.10       8.33
Zn      -2.44      -4.94      10.08
Zn      14.46      -3.04       6.70
H       5.23      13.04      10.21
H       0.93       3.64      16.40
H       9.04      -7.51      16.38
H      -6.33      -4.81      16.55
H       4.19      15.39       5.89
H      -7.16      11.87       8.39
H      -0.72      -0.22      10.60
H       9.59      10.89       6.12
H      12.16      -1.95       8.75
H      -8.64      10.54      11.53
H      -2.41      10.73       6.70
H      -0.96      -0.19       5.89
H      -0.69      14.98       4.96
H      -6.15       3.69      11.80
H       8.72       4.59      10.35
H       9.90      -6.43      14.32
H       0.35       2.41       2.05
H      -3.55       1.48       8.45
H      -2.12       0.52       8.92
H      -2.52       2.00       9.84
H       7.68       7.21       9.01
H       9.03       7.57       7.88
H      -2.36      14.69       7.24
H       7.33       7.57       7.28
H      -1.40      -3.18      14.75
H       0.32      -3.54      14.41
H      -0.81      -4.88      14.83
H       6.58      15.27       4.04
H       6.55      13.71       3.17
H       7.00      15.22       2.30
H       4.60      11.31       7.27
H      -7.37      15.45       5.95
H      -4.09      -3.65      12.49
H      -0.74      11.02       4.42
H      14.79      -1.07       4.00
H      -0.74      12.53       8.12
H      -2.36      13.18       3.54
H      -7.04       6.01      11.86
H       9.62       2.28      10.27
H       9.81       8.35       1.83
H       0.25       2.29      14.43
H       1.60      -1.29      16.42
C      13.13      -5.00      10.58
C      -1.11      11.84       5.05
C      -1.12      12.68       7.11
C      -1.99      13.04       4.56
C       2.43      13.02       6.14
C      -5.50      13.15       6.29
C      -1.09      14.04       5.35
C      -2.02      11.67       6.31
C      -0.18      12.84       5.84
C      -2.93      12.88       5.83
C       1.24      12.89       5.93
C      -1.96      -0.52       5.63
C      -4.34      12.95       5.95
C      -7.67       5.18      11.52
C      10.24       3.10      10.62
C      -4.60      -0.47       9.70
C       8.68       9.79       9.24
C      -8.97       5.47      11.06
C      -7.95       2.83      10.98
C       9.75       4.39      10.66
C      -7.17       3.89      11.48
C      -9.40       6.81      10.90
C      -6.01      -0.46       9.77
C      -7.37       1.57      10.73
C      -6.79       0.56      10.33
C      -9.69       7.96      10.59
C       1.45      -0.21      16.42
C       1.08       2.56      16.39
C       0.85       0.40      15.29
C       9.16      10.24       0.98
C       0.70       1.80      15.30
C       9.37       8.84       0.95
C       0.39      -0.38      14.21
C      -9.97       9.28      10.22
C       9.39      10.98       2.15
C       9.41      11.60       3.21
C      -0.07      -1.06      13.30
C       9.95      -6.91      16.41
C      -7.24      -5.39      16.52
C      -1.01      -3.12      12.09
C       8.73      13.63       4.52
C      18.17       1.52       1.08
C      11.62      -5.54      15.28
C      -0.19       2.30       1.10
C      -0.60      -1.77      12.22
C      10.43      -6.30      15.26
C      17.70       0.89       2.25
C      12.17      -5.01      14.09
C      12.72      -4.68      13.05
C      17.30       0.34       3.26
C       4.52      14.43       6.28
C      -7.40      12.82       7.92
C      -0.88      -1.24      10.94
C       9.29      11.85       5.73
C       4.73      12.35       6.99
C       9.24      12.31       4.40
C      -7.51      14.65       6.67
C      13.16      -1.58       8.99
C      -9.38      10.46      10.74
C      -4.75      -4.08      11.74
C      15.64      -0.97       4.67
C      13.46      -4.52      11.87
C      -2.67      -0.32       4.43
C      -2.94       1.14       9.30
C       7.98       7.80       8.14
C      -0.70      -3.91      14.32
C       3.79      13.24       6.43
C       7.06      14.68       3.25
C      -6.75      13.48       6.85
C      -1.98      13.88       6.62
N      14.20      -4.88       9.78
N       8.83      12.81       6.56
N       5.92      12.96       7.15
N      -1.54      -3.77       7.58
N      14.26      -2.17       8.49
N      -9.88      11.54      10.14
N      -4.32      -4.32      10.49
N      15.63      -1.50       5.90
N      -2.70      -1.22       6.50
N      -4.18      -1.51       8.95
N       8.74      11.13       9.20
N      -1.47      -3.35      10.85
N       8.50      13.91       5.82
N       5.78      14.26       6.71
N      -8.44      13.56       8.34
N      -1.38      -2.18      10.13
O      -3.76       0.43      10.25
O       7.81       9.21       8.38
O      -1.03      -4.17      12.94
O       8.47      14.50       3.51
