56

Cu       5.03       6.86       6.88
Si       9.07       6.86       6.88
H       2.95       6.87       4.75
H       2.81       6.87       2.35
H       7.15       6.87       2.26
H       7.11       6.87       4.68
H       2.91       6.86      11.49
H       7.24       6.86      11.40
H       7.10       6.86       9.00
H       2.95       6.86       9.07
H       2.95       4.74       6.88
H       2.81       2.34       6.88
H       7.15       2.25       6.87
H       7.11       4.67       6.87
H       2.91      11.48       6.88
H       7.24      11.38       6.88
H       7.10       8.99       6.87
H       2.95       9.06       6.88
C       3.87       6.87       4.16
C       3.81       6.87       2.78
C       4.98       6.87       1.98
C       6.17       6.87       2.74
C       6.17       6.87       4.12
C       5.02       6.87       0.49
C       5.04       6.86      13.27
C       3.88       6.86      11.01
C       5.08       6.86      11.77
C       6.25       6.86      10.98
C       6.19       6.86       9.59
C       3.89       6.86       9.63
C       3.87       4.15       6.88
C       3.81       2.76       6.88
C       4.98       1.97       6.88
C       6.17       2.73       6.88
C       6.17       4.11       6.87
C       5.02       0.47       6.87
C       5.04      13.25       6.88
C       3.88      11.00       6.88
C       5.08      11.76       6.88
C       6.25      10.96       6.87
C       6.19       9.58       6.87
C       3.89       9.62       6.88
Br       7.85       6.85      13.62
Br       2.21       6.88       0.14
Br       7.85      13.60       6.87
Br       2.21       0.12       6.88
N       5.03       6.87       4.84
N       5.03       6.86       8.91
N       5.03       4.83       6.88
N       5.03       8.90       6.88
F       2.73       6.88       6.90
F       7.33       6.84       6.86
F       9.07       8.08       5.67
F       9.07       5.65       8.08
F       1.02       5.66       5.66
F       9.04       8.07       8.09
