144

Zn       7.64      11.91       9.09
Zn      -1.78      -2.81       8.65
Zn      -1.94      -5.39      10.67
Zn       7.63      14.62       7.19
H      12.71      -5.38      10.99
H      -0.69      14.15       7.00
H      -6.14       4.32       8.95
H      -6.08       5.62      11.48
H      -6.67       3.12      12.74
H       8.84       8.92       4.65
H      -0.24      -4.15      13.28
H       1.97       1.49      17.22
H       3.83      -1.12      15.19
H      10.88      12.42       3.18
H       3.79      -0.97      17.58
H      -7.03      14.51       6.48
H       0.09       0.94      15.82
H       4.41      14.46       6.05
H      15.87       1.58       4.68
H      11.90      -5.82      12.93
H      10.86      -6.55      17.35
H      -6.15      -3.72      17.12
H       0.12      -0.81      10.55
H      12.78      -2.19       8.77
H      -3.35      -3.80      12.97
H      -8.21      10.25      11.98
H      15.05      -1.75       4.46
H       7.72       8.79      10.18
H       9.19      13.58       4.71
H      -7.22      11.12       9.18
H      -2.18      12.54       8.81
H      -2.15       9.54       6.14
C      13.70      -5.04      11.30
C       8.54       9.38      10.58
C       9.19      12.80       5.46
C      -3.95      -0.85       9.63
C      -7.36      12.04       8.63
C       9.54      11.45       5.34
C      -6.61      12.57       7.56
C      -9.89       8.93      11.23
C      17.04      -0.83       4.92
C      -1.84      12.24       7.82
C      -0.91      11.03       7.51
C      14.24      -0.67       9.55
C       2.55      12.25       6.77
C      -5.37      12.12       7.08
C      -1.03      13.13       6.82
C      -0.26      -3.46      12.44
C      -0.04      11.93       6.52
C      -1.95      12.68       5.65
C      -2.81      11.78       6.65
C      -1.01      11.45       5.36
C      -1.84      10.57       6.34
C       1.37      12.05       6.56
C       0.24      -2.16      12.35
C      -4.22      11.83       6.79
C      10.91       3.84      11.74
C      10.86       3.13      10.33
C      13.54       0.50       9.87
C       4.69      13.62       6.69
C      -9.42       7.61      11.36
C      -7.16       3.53      11.85
C      12.41       2.81      10.44
C      -6.83       4.89      11.15
C      11.22       5.23      11.05
C       3.90      12.51       7.06
C      -6.87       4.20       9.75
C      11.20       4.50       9.64
C      13.01       1.57      10.13
C      -8.96       6.49      11.31
C       9.83      10.76       4.08
C      -0.08      -1.76      11.05
C       9.34       9.47       3.85
C       9.41       8.91       2.58
C       9.92       9.60       1.46
C      10.48      10.87       1.74
C       9.32      10.94       6.64
C      10.44      11.44       3.01
C       2.79      -0.94      14.92
C       2.22      -1.59      13.82
C       0.16      -0.44      14.18
C       0.71       0.24      15.26
C       2.02      -0.03      15.67
C       4.78      11.76       7.88
C       9.73       9.04       0.11
C       2.48       0.56      16.92
C       0.88      -1.39      13.43
C      -7.27      13.78       7.24
C      13.36      -4.48      13.78
C      -5.88      -3.85      15.00
C      -6.50      -4.19      16.20
C      12.06      -5.15      16.28
C      11.59      -5.64      15.03
C      12.23      -5.33      13.85
C      -0.92       1.03       2.05
C      13.79      -1.89       9.01
C      -1.26      -0.01       2.93
C      16.65       1.42       3.93
C      -9.17      10.12      11.49
C      -2.62       2.43       3.02
C      -1.59       2.27       2.08
C      11.60      -5.76      17.51
C      -1.20       3.33       1.12
C      -2.26       0.19       3.90
C      -4.10      -4.22      12.31
C      14.12      -4.48      12.53
C      15.93      -1.67       5.08
C      -1.73      -1.19       6.00
I      -2.78      13.96       4.21
I       9.81       9.05       7.37
I      10.23       5.27       7.93
I       3.45      -2.91      12.73
I      11.43      11.99       0.21
I       8.57       6.99       2.32
I      -4.40      -2.34      15.14
I       9.93      -6.94      14.88
I      15.88       4.23       3.11
I       4.45       9.99       8.90
Br      -0.07      -0.49       6.53
Br       0.48       0.77       0.80
Br      -0.15       9.86       8.82
Br      -2.69       0.43      10.14
Br      -0.42      10.88       3.63
Br       9.53       1.90       9.77
Br       9.63       3.58      13.13
Br      -1.67      -0.08      13.75
Br      -7.79      16.80       2.82
Br       0.07       4.55       1.87
N      14.74      -5.14      10.46
N      -0.85      -3.81      11.28
N       5.91      13.53       7.23
N      -0.74      -2.74      10.41
N       5.97      12.37       7.97
N      14.84      -2.71       8.80
N      -3.75      -4.64      11.07
N       8.84      11.91       7.45
N      -8.30      13.95       8.09
N      -9.85      11.18      11.00
N      16.10      -2.47       6.16
N      -2.28      -2.16       6.73
N       8.57      10.71      10.43
N       8.77      13.06       6.71
N      -8.36      12.89       8.94
N      -3.60      -2.08       9.20
