118

Zn      10.37      -3.98       7.57
Zn       3.93       5.62       7.57
Zn      11.91      -2.36       5.32
Zn       2.32       4.06       5.32
Zn      11.91      10.40       5.26
Zn       5.51       3.94       5.26
Zn      -2.37      -3.96       7.58
Zn       3.94       2.41       7.58
H      -5.24      -5.48      11.59
H       5.44       5.29      11.59
H      12.74      13.75       0.99
H       2.17       3.09       0.99
H      -1.98      -4.42      11.66
H       4.41       2.02      11.66
H      12.71      10.22       1.04
H       5.69       3.14       1.04
H      -3.54      -5.75      11.98
H       5.72       3.59      11.98
H      13.69      12.30       1.38
H       3.62       2.15       1.38
H       8.14      -4.06      11.44
H       4.00       7.84      11.44
H      10.55      -0.17       1.84
H       0.12       5.40       1.84
H      -5.08       0.60      11.08
H      -0.64       5.07      11.08
H       8.32      10.91       2.70
H       4.97       7.53       2.69
C      11.69      12.04       2.89
C       3.87       4.15       2.89
C       3.22       5.59       0.80
C      -4.93      -2.53      12.01
C       2.49       4.96      12.01
C      10.24      12.68       0.80
C      -4.00      -3.85      10.01
C      -4.39      -5.06      12.13
C       5.03       4.44      12.13
C      12.82      12.67       0.82
C       3.25       3.01       0.82
C       3.81       4.03      10.01
C      -2.51      -3.55      12.07
C       3.54       2.55      12.07
C      11.67      10.50       0.83
C       5.40       4.18       0.83
C      -6.45      -2.80      11.62
C       2.75       6.47      11.62
C       9.84      14.03       1.46
C       1.86       5.98       1.45
C      -4.67      -1.23      11.18
C       1.19       4.68      11.18
C       9.07      11.72       1.18
C       4.16       6.78       1.18
C      -3.97      -3.68      11.53
C       3.65       4.00      11.54
C      11.54      11.97       1.36
C       3.93       4.30       1.36
C      -0.45      -0.41       6.37
C       0.40       0.45       6.37
C       8.31       8.42       6.25
C       7.46       7.56       6.25
C       9.33       9.45       6.30
C       6.44       6.53       6.30
C      -1.46      -1.44       6.38
C       1.43       1.47       6.38
C      -1.55       9.44       6.44
C       6.50       1.46       6.44
C       9.40      -1.44       6.48
C       1.38       6.56       6.48
C       8.37      -0.43       6.49
C       0.36       7.58       6.49
C       7.52       0.44       6.46
C      -0.51       8.43       6.46
Cl      -1.54      -2.19      11.47
Cl       2.18       1.56      11.47
Cl      10.76       9.22       1.67
Cl       6.67       5.11       1.67
O      -3.98      -3.97       6.44
O       2.80       4.51       3.46
O       4.15       2.95       9.45
O      12.29      11.06       3.44
O       4.85       3.56       3.44
O      -2.91      -4.18       9.45
O       8.74      -1.93      11.25
O      -6.87      -4.09      11.73
O       1.87       7.22      11.25
O       4.03       6.90      11.73
O       8.71      14.26       1.84
O      -5.14      -3.78       9.46
O      10.82      14.97       1.45
O       1.62       7.11       1.84
O       0.93       4.99       1.45
O       3.74       5.18       9.46
O      11.32      13.11       3.47
O      -4.07      -1.24      10.12
O      -5.29      -0.15      11.68
O       1.21       4.08      10.12
O       0.10       5.29      11.68
O       8.35      11.11       0.42
O       8.99      11.60       2.53
O       4.77       7.50       0.42
O       4.28       6.85       2.53
O       3.94       4.01       6.44
O      10.20       9.42       5.37
O       6.48       5.66       5.37
O      -1.35      -2.32       7.29
O       2.31       1.37       7.29
O      -2.56       9.18       5.72
O       6.74       2.48       5.72
O      -1.33      10.47       7.15
O       5.46       1.24       7.15
O      10.47      -1.14       5.87
O       1.09       5.49       5.86
O       9.12      -2.53       7.09
O       2.47       6.84       7.09
O       9.25      10.26       7.28
O       5.62       6.61       7.27
O      -2.35      -1.36       5.46
O       1.34       2.36       5.46
