96

Zn       9.58       6.77       9.78
Zn      -3.36       9.52       9.98
H       6.37      11.25      10.97
H      -3.19      10.56       3.18
H       9.78       6.30       3.07
H       9.78       6.26       5.57
H      -2.39       6.64       1.25
H      -3.06       6.00      18.41
H       8.25       9.64      18.47
H       8.94      10.29       1.31
H      -4.04       9.99      16.63
H      -3.95      10.02      14.14
H       9.36       5.75      14.06
H       1.74      10.65      11.82
H       9.24       5.70      16.55
H       7.02       5.60      10.64
H       5.84       3.38      10.55
H       9.19       1.89       8.27
H       8.66       0.25      10.20
H       1.00      14.93      10.32
H      -2.78      16.26       8.71
H      -2.56      13.99       7.78
H      -0.60      13.73      11.62
H       5.44       7.49       9.19
H      -0.35       5.31       8.30
H       1.93       5.00       7.32
H       0.03       8.99      11.23
H      10.23       4.16       8.47
H       3.95      11.54      11.61
H      -3.41      11.67       8.17
H      -3.21      10.49       5.67
C       9.63       7.91      12.46
C       2.63       7.67       9.38
C       1.29       7.86       9.88
C       3.68       8.58       9.86
C       3.31       9.72      10.65
C       1.98       9.83      11.14
C       1.03       8.92      10.81
C       5.06       8.39       9.65
C       5.61      10.52      10.69
C       0.22       7.02       9.47
C      -3.35       9.58       5.09
C      -1.23       7.28       9.80
C      -3.35       9.62       3.70
C      -3.52       8.44       2.95
C       9.94       7.22       3.64
C       9.93       7.19       5.03
C      -3.52       8.37       5.77
C      -2.91       7.44       0.73
C      -3.59       6.78      18.96
C       9.40       7.82      18.25
C       8.78       8.84      18.99
C       9.46       9.51       0.76
C      -3.54       8.32       7.27
C      10.09       8.47       1.47
C      -4.10       9.06      16.07
C      -4.05       9.08      14.68
C       9.52       7.88      13.95
C       9.40       6.67      14.64
C       9.35       6.65      16.03
C       9.41       7.84      16.77
C       7.45       4.74      10.13
C       6.81       3.51      10.07
C       7.43       2.44       9.41
C       7.46       9.05       9.85
C       8.68       2.68       8.81
C       9.26       3.94       8.91
C       7.64       0.02       9.87
C       0.35      15.72       9.95
C      -0.96      15.43       9.54
C      -1.76      16.47       9.03
C       5.54       0.77       8.97
C       6.85       1.08       9.40
C      -2.32      13.47       8.70
C      -2.80      12.18       8.91
C       4.28      10.68      11.02
C      -1.74      12.04      10.95
C      -1.21      13.31      10.82
C      -1.50      14.06       9.67
C       6.01       9.33      10.05
C       0.47       5.96       8.60
C       1.75       5.78       8.07
C       2.79       6.63       8.42
Br       4.40       2.11       8.24
Br      -1.37      11.10      12.55
Br       4.38       6.29       7.39
N       8.66       4.94       9.57
N      -2.52      11.47      10.03
O       9.49       6.81      11.83
O      -3.74       9.05      11.93
O      -2.01       6.28       9.85
O      -1.58       8.50       9.94
O       9.89       7.17       7.79
O      -3.37       9.41       7.90
O       7.79       7.83       9.71
O       8.26      10.04       9.86
