192

Mn       5.40       9.67       5.28
Mn       1.14      10.34       8.11
Mn       3.12       7.15      21.49
Mn       7.38       6.48      18.66
H       7.57       9.53       3.88
H       3.32      10.48       9.50
H       0.94       7.29      22.89
H       5.20       6.34      17.27
H       8.23       9.93       5.30
H       3.97      10.07       8.08
H       0.29       6.88      21.47
H       4.54       6.75      18.69
H       0.32      10.87       2.64
H       4.58       9.13      10.75
H       8.19       5.94      24.13
H       3.93       7.68      16.03
H       2.03       9.43       3.20
H       6.29      10.58      10.18
H       6.49       7.39      23.57
H       2.23       6.24      16.59
H       3.15      10.76       3.33
H       7.41       9.24      10.05
H       5.37       6.05      23.44
H       1.11       7.57      16.72
H       0.96       1.42       0.12
H       5.21       6.99      13.27
H       7.56      15.39      26.65
H       3.30       9.83      13.51
H       4.98       7.16      25.51
H       0.73       6.46      14.65
H       3.53       9.65       1.26
H       7.79      10.35      12.13
H       5.82       1.89       1.10
H       1.56       6.52      12.28
H       2.70      14.93      25.67
H       6.95      10.29      14.49
H       4.18       1.63       2.97
H       8.44       6.77      10.41
H       4.33      15.18      23.80
H       0.07      10.04      16.36
H       3.82      12.03       6.74
H       8.08       7.98       6.65
H       4.69       4.79      20.03
H       0.43       8.84      20.13
H       3.71       2.90       6.73
H       7.97       5.50       6.65
H       4.80      13.91      20.04
H       0.55      11.31      20.12
H       7.07       2.88       3.99
H       2.81       5.53       9.40
H       1.45      13.94      22.78
H       5.70      11.28      17.37
H       6.98      12.02       4.05
H       2.73       7.98       9.34
H       1.53       4.79      22.72
H       5.79       8.83      17.43
H       4.56       4.89       7.33
H       0.30       3.52       6.06
H       3.96      11.93      19.44
H       8.21      13.29      20.71
H       4.48       7.36       7.13
H       0.22      12.65       6.25
H       4.03       9.46      19.64
H       8.29       4.17      20.52
H       6.10       7.27       3.32
H       1.84      12.73      10.06
H       2.42       9.54      23.45
H       6.68       4.08      16.71
H       6.18       4.78       3.31
H       1.92       3.62      10.07
H       2.33      12.03      23.46
H       6.59      13.19      16.70
C       2.23      10.19       5.18
C       6.48       9.81       8.21
C       6.29       6.62      21.59
C       2.03       7.00      18.56
C       2.16      10.42       3.66
C       6.41       9.58       9.72
C       6.36       6.40      23.11
C       2.10       7.23      17.05
C       2.49       1.48       1.65
C       6.75       6.93      11.74
C       6.03      15.33      25.12
C       1.77       9.89      15.03
C       2.02       1.50       0.34
C       6.28       6.90      13.05
C       6.50      15.31      26.44
C       2.24       9.91      13.72
C       2.93       6.90      26.06
C       7.18       6.73      14.10
C       5.59       9.92       0.71
C       1.33      10.09      12.67
C       4.29       7.03      26.34
C       0.04       6.60      13.82
C       4.22       9.79       0.43
C       8.48      10.22      12.96
C       4.75       1.78       0.89
C       0.50       6.63      12.50
C       3.76      15.03      25.89
C       8.02      10.19      14.27
C       3.85       1.62       1.94
C       8.11       6.78      11.45
C       4.67      15.19      24.83
C       0.41      10.03      15.32
C       2.42       6.98      24.65
C       6.67       6.65      15.51
C       6.10       9.84       2.13
C       1.84      10.17      11.26
C       4.52      12.61       6.14
C       0.26       7.39       7.25
C       3.99       4.20      20.63
C       8.25       9.42      19.52
C       4.48       2.40       6.15
C       0.22       6.01       7.24
C       4.03      14.41      20.62
C       8.29      10.81      19.54
C       5.39       3.13       5.37
C       1.13       5.28       8.02
C       3.12      13.68      21.40
C       7.38      11.54      18.75
C       6.32       2.40       4.61
C       2.06       6.01       8.78
C       2.20      14.42      22.16
C       6.46      10.80      17.99
C       6.28       1.01       4.64
C       2.02       7.40       8.74
C       2.23      15.81      22.13
C       6.49       9.42      18.03
C       5.36       4.60       5.32
C       1.10       3.80       8.06
C       3.16      12.21      21.45
C       7.41      13.01      18.71
C       4.88       5.36       6.40
C       0.62       3.05       6.98
C       3.64      11.45      20.37
C       7.90      13.77      19.79
C       4.84       6.75       6.31
C       0.58       1.66       7.08
C       3.68      10.07      20.47
C       7.93      15.15      19.69
C       5.75       6.70       4.19
C       1.49      13.31       9.20
C       2.76      10.12      22.59
C       7.02       3.51      17.57
C       5.81       5.31       4.19
C       1.55       3.10       9.19
C       2.71      11.50      22.58
C       6.96      13.72      17.58
S       1.32       1.28       2.97
S       5.58       7.12      10.41
S       7.20      15.53      23.80
S       2.94       9.69      16.36
N       1.09      11.28       3.19
N       5.35       8.72      10.20
N       7.42       5.53      23.58
N       3.17       8.09      16.58
N       5.40      11.91       5.39
N       1.14       8.09       8.00
N       3.12       4.90      21.38
N       7.37       8.72      18.78
N       5.27       7.41       5.22
N       1.01      12.59       8.17
N       3.25       9.40      21.55
N       7.51       4.22      18.60
O       3.29       9.67       5.62
O       7.54      10.34       7.76
O       5.23       7.15      21.15
O       0.97       6.48      19.01
O       1.22      10.49       5.90
O       5.48       9.51       7.48
O       7.29       6.32      20.87
O       3.03       7.30      19.29
O       1.95       1.81       4.16
O       6.20       6.60       9.22
O       6.57      15.00      22.61
O       2.31      10.22      17.55
O       0.04       1.80       2.52
O       4.30       6.61      10.87
O       8.47      15.02      24.26
O       4.21      10.20      15.90
O       1.15       7.02      24.47
O       5.41       6.61      15.68
O       7.36       9.80       2.30
O       3.11      10.21      11.09
O       3.28       7.03      23.71
O       7.54       6.59      16.45
O       5.23       9.78       3.06
O       0.98      10.22      10.32
O       7.50       9.40       4.88
O       3.24      10.60       8.50
O       1.01       7.41      21.89
O       5.27       6.21      18.27
