240

Ti       7.15       1.03       1.78
Ti       7.15      11.07      15.60
Ti       7.15       7.98      17.38
Ti       1.24       9.01      15.60
Ti       1.24      -1.03       1.78
Ti       1.24       2.06       0.00
Ti      10.58       1.03       1.78
Ti      10.58      18.01       0.00
Ti      10.58      11.07      15.60
Ti       4.67       9.01      15.60
Ti       4.67       2.06       0.00
Ti       4.67      -1.03       1.78
H       7.30       1.65       8.53
H       7.30      -3.47      11.69
H       7.30       1.83      14.54
H       1.39       8.39       8.85
H       1.39      13.51       5.69
H       1.39       8.21       2.84
H      10.43       6.56       5.69
H      10.43      11.86       2.84
H      10.43      11.68       8.85
H       4.52       3.47      11.69
H       4.52      -1.83      14.54
H       4.52      -1.65       8.53
H       4.52       8.39       8.85
H       4.52      13.51       5.69
H       4.52       8.21       2.84
H      10.43       1.65       8.53
H      10.43      -3.47      11.69
H      10.43       1.83      14.54
H       1.39       3.47      11.69
H       1.39      -1.83      14.54
H       1.39      -1.65       8.53
H       7.30       6.56       5.69
H       7.30      11.86       2.84
H       7.30      11.68       8.85
H       7.30       1.64       6.03
H       7.30      -5.63      12.95
H       7.30       4.00      15.78
H       1.39       8.40      11.35
H       1.39      15.67       4.43
H       1.39       6.04       1.60
H      10.43       4.40       4.43
H      10.43      14.03       1.60
H      10.43      11.67      11.35
H       4.52       5.63      12.95
H       4.52      -4.00      15.78
H       4.52      -1.64       6.03
H       4.52       8.40      11.35
H       4.52      15.67       4.43
H       4.52       6.04       1.60
H      10.43       1.64       6.03
H      10.43      -5.63      12.95
H      10.43       4.00      15.78
H       1.39       5.63      12.95
H       1.39      -4.00      15.78
H       1.39      -1.64       6.03
H       7.30       4.40       4.43
H       7.30      14.03       1.60
H       7.30      11.67      11.35
H       8.87      -0.62       3.01
H       8.87      -7.12      16.41
H       8.87       7.74      15.34
H       2.96      10.66      14.37
H       2.96      17.16       0.97
H       2.96       2.30       2.04
H       8.87       2.92       0.97
H       8.87      17.77       2.04
H       8.87       9.42      14.37
H       2.96       7.12      16.41
H       2.96      -7.74      15.34
H       2.96       0.62       3.01
H       5.91       2.15      10.35
H       5.91      -2.15      10.35
H       5.91       0.00      14.07
H      11.82       7.88       7.04
H       0.00      12.19       7.04
H      11.82      10.04       3.31
H       5.91       7.88       7.04
H       5.91      12.19       7.04
H       5.91      10.04       3.31
H       0.00       2.15      10.35
H       0.00      -2.15      10.35
H       0.00       0.00      14.07
C       6.68       0.93       7.98
C       6.68      -3.59      12.58
C       6.68       2.66      14.20
C       0.77       9.10       9.40
C       0.77      13.62       4.80
C       0.77       7.38       3.18
C      11.05       6.45       4.80
C      11.05      12.69       3.18
C      11.05      10.97       9.40
C       5.14       3.59      12.58
C       5.14      -2.66      14.20
C       5.14      -0.93       7.98
C       5.14       9.10       9.40
C       5.14      13.62       4.80
C       5.14       7.38       3.18
C      11.05       0.93       7.98
C      11.05      -3.59      12.58
C      11.05       2.66      14.20
C       0.77       3.59      12.58
C       0.77      -2.66      14.20
C       0.77      -0.93       7.98
C       6.68       6.45       4.80
C       6.68      12.69       3.18
C       6.68      10.97       9.40
C       6.69       0.93       6.59
C       6.69      -4.79      13.28
C       6.69       3.86      14.89
C       0.78       9.11      10.79
C       0.78      14.83       4.10
C       0.78       6.18       2.49
C      11.04       5.25       4.10
C      11.04      13.90       2.49
C      11.04      10.97      10.79
C       5.13       4.79      13.28
C       5.13      -3.86      14.89
C       5.13      -0.93       6.59
C       5.13       9.11      10.79
C       5.13      14.83       4.10
C       5.13       6.18       2.49
C      11.04       0.93       6.59
C      11.04      -4.79      13.28
C      11.04       3.86      14.89
C       0.78       4.79      13.28
C       0.78      -3.86      14.89
C       0.78      -0.93       6.59
C       6.69       5.25       4.10
C       6.69      13.90       2.49
C       6.69      10.97      10.79
C       5.91       0.00       8.70
C       5.91      -2.50      13.03
C       5.91       2.50      13.03
C       0.00      10.04       8.68
C      11.82      12.54       4.35
C       0.00       7.54       4.35
C       5.91      10.04       8.68
C       5.91      12.54       4.35
C       5.91       7.54       4.35
C       0.00       0.00       8.70
C       0.00      -2.50      13.03
C      11.82       2.50      13.03
C       5.91       0.00       5.89
C       5.91      -4.94      14.44
C       5.91       4.94      14.44
C      11.82      10.04      11.49
C      11.82      14.97       2.94
C       0.00       5.10       2.94
C       5.91      10.04      11.49
C       5.91      14.97       2.94
C       5.91       5.10       2.94
C       0.00       0.00       5.89
C      11.82      -4.94      14.44
C      11.82       4.94      14.44
C       5.91       0.00       4.40
C       5.91      -6.23      15.18
C       5.91       6.23      15.18
C       0.00      10.04      12.98
C      11.82      16.26       2.20
C       0.00       3.81       2.20
C       5.91      10.04      12.98
C       5.91      16.26       2.20
C       5.91       3.81       2.20
C       0.00      -0.00       4.40
C       0.00      -6.23      15.18
C      11.82       6.23      15.18
C       5.91       0.00      10.18
C       5.91      -1.22      12.29
C       5.91       1.22      12.29
C       0.00      10.04       7.20
C      11.82      11.26       5.09
C       0.00       8.82       5.09
C       5.91      10.04       7.20
C       5.91      11.26       5.09
C       5.91       8.82       5.09
C       0.00       0.00      10.18
C       0.00      -1.22      12.29
C      11.82       1.22      12.29
C       5.91       1.21      10.89
C       5.91      -1.21      10.89
C       5.91       0.00      12.98
C       0.00       8.83       6.49
C      11.82      11.24       6.49
C       0.00      10.04       4.40
C       5.91       8.83       6.49
C       5.91      11.24       6.49
C       5.91      10.04       4.40
C      11.82       1.21      10.89
C      11.82      -1.21      10.89
C      11.82       0.00      12.98
O       6.73       0.78       3.81
O       6.73      -7.13      14.81
O       6.73       6.35      16.15
O       0.81       9.26      13.57
O       0.81      17.16       2.58
O       0.81       3.69       1.23
O      11.01       2.91       2.58
O      11.01      16.39       1.23
O      11.01      10.81      13.57
O       5.10       7.13      14.81
O       5.10      -6.35      16.15
O       5.10      -0.78       3.81
O       5.10       9.26      13.57
O       5.10      17.16       2.58
O       5.10       3.69       1.23
O      11.01       0.78       3.81
O      11.01      -7.13      14.81
O      11.01       6.35      16.15
O       0.81       7.13      14.81
O       0.81      -6.35      16.15
O       0.81      -0.78       3.81
O       6.73       2.91       2.58
O       6.73      16.39       1.23
O       6.73      10.81      13.57
O       8.87       0.21       2.52
O       8.87      -7.96      15.94
O       8.87       7.75      16.31
O       2.96       9.82      14.86
O       2.96      18.00       1.45
O       2.96       2.29       1.08
O       8.87       2.08       1.45
O       8.87      17.78       1.08
O       8.87      10.25      14.86
O       2.96       7.96      15.94
O       2.96      -7.75      16.31
O       2.96      -0.21       2.52
O       5.04       0.85       1.48
O       5.04      -9.18      15.90
O       5.04       8.33      17.38
O      10.95       9.18      15.90
O      10.95      19.22       1.48
O      10.95      -8.33      17.38
O       0.87       0.85       1.48
O       0.87      18.36       0.00
O       0.87      -9.18      15.90
O       6.78       9.18      15.90
O       6.78      -8.33      17.38
O       6.78      19.22       1.48
