146

Zn      22.77       8.09       1.97
Zn      15.22      12.44      14.58
Zn      31.93      15.23      14.49
Zn      30.35      12.40      14.40
Zn      13.62       2.72       5.57
Zn      22.70      16.84       8.17
Zn      12.17       3.66       8.31
Zn      15.34       3.59       8.12
H       5.11       2.65       2.39
H      26.87      12.56      11.73
H      11.01       6.25      11.58
H      19.30      13.77       9.04
H       7.36       7.04       4.89
H       9.79       4.94       0.58
C      13.74      10.47      12.99
C      21.75       4.80       5.12
C       4.73       4.35       5.34
C       5.33       3.55       4.35
C      18.61       4.37       4.59
C      17.26       4.70       4.49
C      16.87       5.69       3.55
C      17.88       6.28       2.79
C      19.22       5.92       2.88
C      19.61       4.95       3.81
C      14.87       6.19       2.12
C      22.98      11.02       2.03
C      13.59       6.70       1.89
C      12.85       7.17       2.99
C      13.40       7.12       4.29
C      14.70       6.63       4.44
C      15.47       6.16       3.38
C      22.61      12.24       4.19
C      23.12      12.23       2.90
C      23.71      13.43       2.50
C      23.73      14.60       3.30
C      23.12      14.60       4.57
C       6.93       6.57       2.23
C      22.61      13.38       4.99
C      21.80      12.74       6.11
C      21.81      11.41       5.17
C      27.41      14.74      11.47
C      28.28      15.47      12.27
C      28.01      16.85      12.31
C      26.95      17.43      11.57
C      26.10      16.68      10.74
C      26.37      15.31      10.75
C      25.91      13.98      10.19
C      29.40      14.83      13.03
C      27.13      13.33      10.99
C      12.68       8.58      11.68
C      13.81       9.32      12.04
C      15.00       8.86      11.46
C      15.05       7.72      10.62
C      13.91       6.96      10.32
C      12.73       7.45      10.87
C      11.25       7.15      11.00
C      11.18       8.49      11.89
C      17.72      14.87      11.26
C      16.27      14.87      13.31
C      17.34      15.47      12.45
C      17.95      16.70      12.70
C      18.87      17.28      11.81
C      19.23      16.67      10.60
C      18.61      15.45      10.36
C      18.43      14.38       9.30
C      17.45      13.68      10.36
C       8.93       5.09       2.63
C       7.98       5.99       3.11
C       8.07       6.35       4.46
C      20.24       6.61       2.01
C       9.09       5.82       5.27
C      10.06       4.91       4.81
C       9.92       4.57       3.46
C      10.48       3.70       2.35
C       9.37       4.33       1.40
C      25.08      17.30       9.84
C      11.13       4.29       5.64
C      22.95      15.82       5.43
C      13.92       5.70       9.51
C      20.21      17.28       9.64
C       4.65       3.26       3.16
C      16.25       4.02       5.36
C       3.36       3.75       3.00
C      21.02       4.51       3.97
Cl       6.89       2.88       4.60
Cl      11.28       7.82       2.75
Cl      12.52       7.62       5.67
Cl      24.53      15.97       2.66
Cl      22.63      12.51       7.65
Cl      20.22      13.49       6.36
Cl      20.25      10.82       4.60
Cl      24.32      13.41      10.73
Cl      10.30       7.09       9.51
Cl      10.25       9.81      11.21
Cl      10.69       8.16      13.57
Cl      17.70      14.96       7.79
Cl      15.77      13.41       9.89
Cl       8.20       3.20       0.69
Cl       5.54       4.77       6.79
Cl      12.96       6.73       0.30
O      31.90      13.37      15.14
O       5.91       7.09       2.79
O      29.22      13.60      13.32
O      14.84      10.90      13.45
O      22.78      11.22       0.79
O      13.70       2.69       7.53
O      25.30      18.49       9.46
O      12.05       3.72       4.98
O      23.03      15.61       6.68
O      12.81       5.07       9.52
O      20.98      16.45       9.06
O      12.57      10.91      13.25
O      16.54       3.91       6.59
O      20.16      18.54       9.50
O      15.19       3.62       4.78
O      22.70      16.92       4.84
O      14.99       5.35       8.92
O      24.12      16.53       9.51
O      11.02       4.37       6.91
O      23.04       9.91       2.64
O       7.16       6.49       0.98
O      30.41      15.55      13.30
O      16.40      13.64      13.57
O      20.13       6.44       0.76
O      15.32      15.65      13.63
O      21.12       7.27       2.64
F      15.23       6.62       5.69
F      24.31      13.50       1.30
F      22.49      10.35       5.73
F      28.72      17.68      13.08
F      26.80      18.76      11.71
F      26.00      13.84       8.82
F      28.11      12.80      10.14
F      16.17       9.48      11.66
F      16.26       7.39      10.14
F       2.70       3.45       1.85
F      17.68      17.37      13.84
F      19.43      18.44      12.19
F      17.98      12.49      10.82
F       9.11       6.25       6.55
F      11.77       3.98       1.95
F      21.16       5.55       6.08
F      10.41       2.35       2.54
F      18.98       3.38       5.45
F      17.56       7.30       1.95
F      15.55       5.69       1.06
