70

Zn      12.14       7.08       8.09
Zn       9.34       7.36       8.12
H      17.23      12.79       8.33
H       4.26       1.65       7.88
H      13.06      11.06       7.93
H       8.42       3.37       8.29
H       8.89      11.77       8.43
H      12.60       2.67       7.79
H       4.59       5.07       8.23
H      16.90       9.37       7.98
H      12.19       0.19       7.80
H       9.29      14.25       8.41
H      12.91       7.45      14.92
H       8.57       6.99       1.29
C      10.71       7.17       5.50
C      10.77       7.27      10.72
C      15.10      12.95       8.43
C       6.38       1.49       7.79
C      16.36      13.44       8.20
C       5.12       1.00       8.01
C      11.99       7.35      15.49
C       9.49       7.09       0.72
C      10.77       7.23      14.79
C      10.72       7.21       1.42
C       9.58       7.10      15.55
C      11.90       7.34       0.66
C      10.76       7.25      13.38
C      10.72       7.19       2.83
C      10.70       7.18       4.05
C      10.78       7.26      12.16
C      17.47       5.99       8.18
C       4.01       8.45       8.03
C      16.77       7.22       8.10
C       4.71       7.22       8.11
C      17.46       8.44       8.03
C       4.02       6.00       8.19
C      10.71       4.62       8.12
C      10.77       9.82       8.09
C      15.35       7.22       8.09
C       6.13       7.22       8.12
C      10.50       3.14       8.04
C      10.98      11.30       8.18
C      11.36       0.90       7.86
C      10.12      13.54       8.36
C      11.59       2.26       7.87
C       9.89      12.18       8.35
C       9.21       2.64       8.11
C      12.28      11.79       8.10
C       8.92       1.27       8.00
C      12.57      13.17       8.21
C      10.04       0.38       7.96
C      11.44      14.05       8.25
C       7.58       0.71       8.00
C      13.91      13.73       8.22
Br      15.10      11.21       9.25
Br       6.38       3.23       6.96
Br      13.57       7.51       1.54
Br       7.91       6.93      14.67
Br      16.54       4.36       8.29
Br       4.95      10.08       7.92
N       7.29       7.22       8.13
N      14.19       7.22       8.08
O      11.85       7.03       6.05
O       9.63       7.40      10.17
O       9.58       7.31       6.07
O      11.90       7.13      10.14
O      11.91       5.05       8.11
O       9.57       9.39       8.10
O       9.66       5.34       8.18
O      11.82       9.10       8.03
