212

Zn       7.61       9.00      15.57
Zn      27.15      10.82      18.24
Zn       9.08      11.89      15.72
Zn      25.57      11.74      15.62
Zn      18.43       7.28       8.85
Zn      16.89       4.43       8.69
Zn      18.65       5.46       6.19
Zn      20.09       4.53       8.87
Zn      16.27      16.34      22.46
Zn      17.81      15.44      25.13
Zn      16.05      18.13      25.14
Zn      14.62      15.26      25.00
Zn      17.78       5.01      32.03
Zn      14.56       4.89      31.86
Zn      24.97      19.88      31.88
Zn      18.42      17.63       1.96
H      20.88       9.40      11.41
H       5.14       6.88      13.02
H      13.83      14.81      19.51
H       9.88      12.35      21.20
H      13.36       5.62      11.11
H      19.35      14.85      19.59
H      16.31      19.75      19.59
H      29.29      18.58      11.33
H      14.44       2.88       1.61
H      13.92       2.55       6.53
H      18.41      14.24       4.83
H       4.69       2.67       1.32
H      11.57       3.63      29.31
H      20.78      16.68      27.70
H      14.07       8.58      29.38
H      21.33       3.82      29.60
C       7.52       7.86      18.30
C       9.92      12.38      18.53
C      10.20       9.54      14.29
C      27.16      13.87      14.30
C      24.79       9.35      14.04
C      24.52      12.19      18.32
C      15.81       6.76      10.14
C      16.13       3.92       5.89
C      18.53       8.43       6.14
C      21.23       4.08       6.17
C      20.92       6.92      10.40
C      18.50       2.41      10.15
C      18.88      14.97      22.42
C      18.57      17.81      26.68
C      16.18      19.29      22.42
C      13.47      17.60      26.43
C      13.79      14.78      22.18
C      16.22      13.28      26.43
C      16.17       7.02      30.57
C      22.46      20.21      30.33
C      27.57      20.39      30.58
C      18.53      14.69       2.01
C      12.24       1.49       2.26
C       7.13       1.33       1.99
C      23.79       8.76      13.10
C      21.93       7.52      11.33
C      22.65       9.44      12.62
C      23.06       6.84      11.80
C      21.75       8.84      11.76
C      23.97       7.44      12.67
C      10.93      13.00      19.44
C      12.78      14.15      21.27
C      12.06      13.71      19.00
C      11.65      13.45      21.72
C      12.96      14.27      19.89
C      10.74      12.89      20.82
C      12.48       9.66      13.06
C      13.57       6.66      11.37
C      11.32       9.03      13.49
C      14.72       7.31      10.96
C      12.75       7.51      12.14
C      13.30       8.80      12.30
C      23.28      12.72      20.53
C      20.10      14.42      20.24
C      23.43      12.72      19.15
C      19.98      14.41      21.62
C      21.31      13.80      19.84
C      22.07      13.34      20.93
C       7.44       6.52      20.52
C       7.56       2.92      20.24
C       7.51       6.65      19.13
C       7.50       2.82      21.62
C       7.54       4.27      19.83
C       7.46       5.17      20.92
C      26.05      15.77      12.94
C      28.27      18.23      11.48
C      27.13      15.09      13.48
C      27.17      18.89      10.96
C      27.86      17.09      12.20
C      26.46      16.91      12.21
C      15.14       3.31       4.93
C      13.22       2.11       3.21
C      15.26       3.39       3.53
C      13.10       2.04       4.61
C      14.32       2.80       2.69
C      14.04       2.62       5.45
C      18.58       9.76       3.91
C      18.46      13.36       4.19
C      18.53       9.63       5.30
C      18.53      13.46       2.81
C      18.48      12.01       4.60
C      18.56      11.11       3.51
C       3.82       2.90       5.80
C       4.89       2.51       2.37
C       2.66       3.54       5.38
C       6.04       1.87       2.81
C       4.08       2.89       3.46
C       4.63       2.53       4.71
C      19.55      18.45      27.62
C      21.48      19.57      29.39
C      19.44      19.77      28.09
C      21.59      18.25      28.91
C      20.38      20.32      28.96
C      20.66      17.71      28.05
C      17.32      11.36      27.79
C      15.09       8.92      29.23
C      16.25      12.06      27.24
C      16.18       8.25      29.76
C      15.50      10.06      28.51
C      16.90      10.22      28.51
C      30.88      17.48      27.66
C      29.81      20.49      29.35
C      32.05      18.11      27.23
C      28.66      19.84      29.76
C      30.62      19.64      28.58
C      30.07      18.35      28.43
S      11.23       7.37      12.94
S      14.82       8.96      11.50
S      22.08      13.47      18.33
S      21.32      13.66      22.44
S       7.59       5.10      18.33
S       7.41       4.36      22.43
S      28.66      15.84      13.09
S      25.65      18.14      11.33
S      18.44      11.18       6.10
S      18.61      11.92       2.00
S       2.56       3.68       3.65
S       6.15       1.73       4.54
S      14.72      11.30      27.62
S      17.71       8.99      29.39
S      32.14      19.77      27.77
S      28.56      18.19      29.23
Br      13.01      11.43      13.41
Br      24.47      12.02      21.80
Br       7.34       7.90      21.78
Br      24.24      15.33      13.09
Br      18.67       8.37       2.65
Br       4.35       2.54       7.57
Br      19.14      11.80      27.64
Br      30.36      15.71      27.31
O       7.51      10.84      16.28
O       7.57       7.67      17.03
O       8.96      11.76      19.10
O      10.28      10.75      14.67
O       7.47       8.98      18.90
O       9.26       8.71      14.54
O      10.09      12.52      17.28
O       8.64      13.47      14.65
O      24.58      10.54      14.43
O      26.05      13.33      14.59
O      25.77       8.61      14.37
O      25.51      11.66      18.91
O      24.36      12.32      17.05
O      18.50       5.44       8.16
O      16.78       7.56       9.89
O      15.86       3.79       7.13
O      18.61       7.30       5.54
O      15.69       5.55       9.76
O      18.46       8.62       7.40
O      17.13       4.51       5.39
O      20.29       4.62       5.50
O      21.10       5.72      10.05
O      21.30       3.96       7.44
O      19.95       7.68      10.04
O      17.36       2.85       9.76
O      19.64       2.92       9.90
O      16.19      16.30      24.42
O      17.92      15.50      21.78
O      18.84      16.61      26.33
O      16.10      19.45      23.69
O      19.00      14.86      23.69
O      16.25      18.19      21.78
O      17.57      18.50      26.32
O      14.41      18.43      26.17
O      13.61      14.64      23.43
O      13.41      16.38      26.06
O      14.76      15.40      21.62
O      17.34      13.83      26.16
O      15.06      13.68      26.07
O      16.17       4.02      32.57
O      17.31       6.58      30.95
O      22.22      21.42      30.66
O      26.61      19.59      30.84
O      15.02       6.51      30.83
O      19.00       3.90      30.95
O      23.45      19.51      30.70
O      18.61      14.54       0.74
O      11.25       0.87       2.76
O      18.45      15.80       2.64
O      12.49       1.65       1.01
O       7.02       1.46       0.72
O       8.09       0.77       2.62
F      22.40      10.72      12.98
F      23.32       5.56      11.44
F      12.32      13.87      17.68
F      11.38      13.29      23.03
F      16.29       4.03       2.94
F      12.07       1.40       5.20
F      18.41      20.57      27.73
F      22.63      17.46      29.28
