92

Al       6.66      11.81       9.28
Al       0.02       0.06       0.00
Al       3.33      11.79       9.28
Al       3.36       0.04       0.00
H       0.96       7.76       3.70
H       5.73      19.51      12.98
H       0.87       9.72       5.22
H       5.82      21.47      14.50
H       2.34       5.31       6.97
H       4.34      17.06      16.25
H       3.71       2.65       3.19
H       2.98      14.40      12.46
H       6.41       3.71       1.96
H       0.27      15.46      11.24
H       6.47       5.67       3.50
H       0.21      17.42      12.78
H       6.31       9.60      12.83
H       0.37      15.16       3.55
H       2.71       9.59      12.96
H       3.98      15.14       3.68
H       6.34       8.37      14.96
H       0.35      13.92       5.68
H       2.73       8.47      14.83
H       3.96      14.03       5.56
H       5.00      10.08       9.03
H       1.68      21.83      18.31
H       1.66      13.34       8.49
H       5.02       7.79      17.77
C       5.01      13.09       7.21
C       1.68       7.54      16.49
C       4.97      13.67      10.81
C       1.71       1.92       1.53
C       1.64      10.53      11.33
C       5.05      16.09       2.05
C       1.66       9.86       7.80
C       5.03      21.62      17.08
C       1.25       7.65       4.74
C       5.43      19.40      14.02
C       1.21       8.75       5.59
C       5.47      20.50      14.87
C       1.64       8.65       6.92
C       5.05      20.40      16.20
C       2.05       7.40       7.39
C       4.64      19.15      16.67
C       2.05       6.28       6.56
C       4.63      18.03      15.84
C       1.69       6.40       5.21
C       5.00      18.15      14.49
C       2.83       4.35       4.20
C       3.86      16.10      13.47
C       2.84       3.30       3.28
C       3.85      15.05      12.56
C       1.71       3.06       2.48
C       4.97      14.81      11.76
C       0.61       3.91       2.57
C       6.08      15.66      11.85
C       0.65       5.00       3.44
C       6.04      16.75      12.72
C       1.74       5.24       4.30
C       4.95      16.99      13.57
C       0.60       9.37      13.27
C       6.08      14.92       3.99
C       1.70       9.78      12.60
C       4.99      15.34       3.32
C       0.62       8.63      14.52
C       6.07      14.19       5.24
C       1.72       8.26      15.20
C       4.96      13.81       5.92
Br       2.57       7.18       9.21
Br       4.11      18.93      18.49
Br       4.41       4.56       5.26
Br       2.28      16.31      14.54
O       3.85      13.17      10.50
O       2.84       1.42       1.22
O       6.15      12.78       7.68
O       0.53       7.22      16.96
O       0.52      10.31       8.16
O       6.16      22.06      17.44
O       6.10      13.28      10.37
O       0.58       1.53       1.09
O       0.50      10.87      10.86
O       6.19      16.42       1.58
O       3.87      12.85       7.75
O       2.81       7.30      17.03
O       5.00      10.99       9.37
O       1.69      16.54       0.09
O       2.77      10.78      10.79
O       3.92      16.33       1.51
O       2.80      10.34       8.09
O       3.89      22.09      17.37
O       1.66      12.60       9.11
O       5.03       7.04      18.39
