208

Tb       5.51      -5.85      21.59
Tb      -1.01      -1.39      12.26
Tb       0.15      12.16       0.97
Tb       6.67       7.69      10.31
H       3.83      -5.58      17.08
H      -0.15      -2.85      16.77
H       1.82      11.88       5.49
H       5.81       9.16       5.79
H       0.05       3.76      15.91
H       9.92      -2.99      17.94
H       5.61       2.55       6.66
H      -4.27       9.30       4.62
H       0.84       4.88      17.96
H      10.68      -1.85      15.89
H       4.81       1.43       4.61
H      -5.02       8.16       6.67
H      -0.62       2.86      14.35
H       9.33      -3.94      19.50
H       6.27       3.44       8.21
H      -3.67      10.24       3.07
H      -4.02       5.11      11.53
H      -2.23      -6.30      22.31
H       9.68       1.20      11.03
H       7.88      12.61       0.25
H      -3.27       2.82      11.01
H      14.08       1.13       0.27
H       8.93       3.49      11.55
H      -8.42       5.18      22.30
H      -4.79       6.76      12.10
H      -0.41      -6.42      21.74
H      10.44      -0.45      10.47
H       6.07      12.73       0.82
H       2.57      -4.70      15.95
H       1.12      -3.72      17.90
H       3.09      11.01       6.61
H       4.53      10.02       4.67
H       0.74      -3.69      14.65
H       2.73      -5.06      19.20
H       4.92       9.99       7.92
H       2.93      11.37       3.37
H      11.65       2.88       1.95
H      -0.76       1.18       9.33
H      -5.99       3.43      20.61
H       6.42       5.12      13.23
H      10.87       4.46       2.34
H       1.00       1.03       8.94
H      -5.21       1.85      20.22
H       4.66       5.27      13.63
H      11.68       4.22       0.77
H       0.48       1.70      10.51
H      -6.03       2.09      21.80
H       5.18       4.60      12.05
H       6.94       3.79       1.42
H       1.80      -2.88       9.87
H      -1.28       2.51      21.15
H       3.85       9.18      12.70
H       6.21       2.53       2.47
H      -4.51       9.86       8.82
H      -0.56       3.78      20.10
H      10.17      -3.55      13.75
H       5.77       2.62       0.74
H      -4.26       9.48      10.55
H      -0.12       3.69      21.83
H       9.92      -3.17      12.02
H       9.26       2.87       1.56
H       0.10      -1.05       9.72
H      -3.60       3.44      21.01
H       5.56       7.35      12.84
H       7.49       0.96       1.33
H      -6.43      10.48       9.95
H      -1.83       5.35      21.23
H      12.09      -4.17      12.61
H       4.66      -3.75      20.16
H       1.26      -1.42      13.69
H       1.00      10.06       2.41
H       4.40       7.73       8.88
H       5.15      -3.00      21.44
H       1.78      -0.69      12.41
H       0.50       9.31       1.12
H       3.88       7.00      10.16
C       0.05       7.30      18.92
C      -1.66      -1.71      14.93
C       5.61      -0.99       3.65
C       7.32       8.02       7.64
C      -0.33       6.66      17.63
C      -2.12      -2.29      16.22
C       5.98      -0.35       4.94
C       7.77       8.60       6.34
C      -1.22       7.30      16.78
C      -1.20      -2.90      17.07
C       6.88      -0.99       5.79
C       6.85       9.20       5.50
C      -1.72       6.68      15.62
C      -1.59      -3.58      18.23
C       7.38      -0.38       6.95
C       7.25       9.89       4.33
C      -1.26       5.38      15.29
C      -2.98      -3.63      18.56
C       6.92       0.93       7.28
C       8.63       9.94       4.00
C      -0.32       4.76      16.14
C      -3.89      -2.97      17.71
C       5.97       1.55       6.42
C       9.55       9.28       4.86
C       0.14       5.38      17.29
C      -3.48      -2.33      16.56
C       5.52       0.93       5.27
C       9.14       8.63       6.01
C      -1.50       1.31      12.42
C       8.20      -5.33      21.43
C       7.16       5.00      10.14
C      -2.55      11.63       1.14
C      -1.90       2.72      12.68
C       9.66      -5.19      21.17
C       7.55       3.59       9.89
C      -4.01      11.49       1.39
C      -1.36       3.40      13.76
C      10.10      -4.44      20.09
C       7.02       2.91       8.80
C      -4.44      10.75       2.48
C      -1.78       4.69      14.11
C      -3.42      -4.37      19.74
C       7.44       1.61       8.46
C       9.08      10.67       2.83
C      -2.77       5.33      13.30
C      -2.47      -5.06      20.55
C       8.43       0.98       9.26
C       8.13      11.37       2.02
C      -3.28       4.63      12.17
C      -2.94      -5.78      21.68
C       8.93       1.67      10.39
C       8.59      12.09       0.89
C      -2.86       3.35      11.87
C      -4.28      -5.85      21.98
C       8.52       2.95      10.70
C       9.94      12.16       0.59
C      -5.98       9.05      12.53
C       2.15      -6.70      21.31
C      11.63      -2.74      10.03
C       3.50      13.00       1.25
C      -4.81       8.51      13.29
C       1.23      -5.81      20.56
C      10.47      -2.20       9.28
C       4.43      12.12       2.01
C      -4.31       7.26      12.94
C      -0.12      -5.79      20.91
C       9.97      -0.95       9.63
C       5.77      12.10       1.66
C      -3.27       6.65      13.66
C      -1.06      -5.04      20.18
C       8.92      -0.34       8.90
C       6.72      11.35       2.38
C      -2.73       7.34      14.79
C      -0.62      -4.29      19.06
C       8.39      -1.03       7.78
C       6.27      10.60       3.51
C      -3.23       8.62      15.10
C       0.76      -4.30      18.74
C       8.89      -2.31       7.46
C       4.89      10.60       3.82
C       1.14      -4.66      14.38
C       1.68      -5.04      19.47
C       4.52      10.97       8.19
C       3.98      11.34       3.10
C      11.08       3.73       1.55
C       0.24       0.97       9.74
C      -5.43       2.57      21.02
C       5.42       5.34      12.83
C       6.59       2.76       1.46
C      -4.43      10.29       9.82
C      -0.93       3.55      21.11
C      10.09      -3.98      12.74
O       5.09      -5.36      19.17
O      -0.41      -1.60      14.68
O       0.56      11.67       3.40
O       6.07       7.90       7.88
O       0.64       6.59      19.81
O      -2.54      -1.41      14.04
O       5.01      -0.28       2.76
O       8.19       7.72       8.53
O      -0.45       0.82      12.98
O       7.37      -4.53      20.87
O       6.11       5.48       9.58
O      -1.71      10.84       1.70
O      -2.23       0.58      11.66
O       7.79      -6.27      22.19
O       7.89       5.72      10.90
O      -2.14      12.58       0.38
O      -6.44       8.34      11.59
O       1.66      -7.38      22.26
O      12.10      -2.03      10.98
O       3.99      13.69       0.31
O      -1.10      -3.70      12.88
O       3.39      -6.77      20.97
O       6.76      10.01       9.69
O       2.27      13.08       1.60
O       9.86       3.30       0.92
O       0.28      -0.32      10.36
O      -4.21       3.00      21.65
O       5.37       6.63      12.20
O       7.71       1.91       1.14
O      -0.23      -2.83      10.14
O      -2.06       4.40      21.42
O       5.89       9.14      12.43
O       4.50      -3.65      21.12
O       1.41      -1.53      12.72
O       1.16       9.95       1.44
O       4.25       7.84       9.84
