244

Zn       7.44       8.90      15.58
Zn      26.88      10.67      18.22
Zn       8.88      11.81      15.64
Zn      25.40      11.71      15.54
Zn      18.24       7.23       8.86
Zn      16.72       4.44       8.67
Zn      18.57       5.43       6.19
Zn      19.95       4.48       8.78
Zn      16.06      16.19      22.37
Zn      17.58      15.29      25.01
Zn      15.73      17.96      25.06
Zn      14.34      15.21      24.94
Zn      17.48       4.95      31.90
Zn      14.31       4.83      31.71
Zn      24.62      19.74      31.81
Zn      18.26      17.54       1.93
H      20.70       9.30      11.33
H       5.05       6.86      13.00
H      13.62      14.73      19.50
H       9.65      12.24      21.09
H      13.20       5.58      11.11
H      19.10      14.69      19.48
H      16.01      19.60      19.56
H      29.03      18.64      11.39
H      14.32       2.81       1.60
H      13.87       2.55       6.52
H      18.25      14.15       4.84
H       4.65       2.58       1.29
H      11.37       3.52      29.25
H      20.43      16.56      27.57
H      13.79       8.49      29.21
H      21.07       3.72      29.59
H      23.90      11.67      12.98
H      22.73       5.29       9.46
H      10.41      14.13      16.68
H      11.57      14.88      23.91
H      17.84       3.62       3.95
H      20.21      17.39       4.16
H      16.44      19.32      27.59
H      22.66      17.61      31.12
C       7.34       7.73      18.27
C       9.67      12.35      18.46
C      10.01       9.48      14.27
C      26.93      13.84      14.21
C      24.65       9.32      13.92
C      24.29      12.08      18.20
C      15.63       6.74      10.14
C      16.07       3.83       5.87
C      18.40       8.35       6.13
C      21.14       4.02       6.14
C      20.80       6.91      10.27
C      18.34       2.42      10.09
C      18.67      14.85      22.31
C      18.22      17.64      26.65
C      15.92      19.14      22.38
C      13.16      17.48      26.38
C      13.51      14.77      22.12
C      15.96      13.20      26.31
C      15.88       6.96      30.44
C      22.07      20.05      30.32
C      27.17      20.29      30.48
C      18.39      14.61       2.02
C      12.21       1.39       2.24
C       7.13       1.32       1.96
C      23.60       8.73      13.03
C      21.79       7.45      11.25
C      22.45       9.41      12.56
C      22.91       6.76      11.76
C      21.58       8.77      11.69
C      23.79       7.40      12.62
C      10.72      12.95      19.36
C      12.52      14.08      21.23
C      11.87      13.64      18.92
C      11.40      13.34      21.67
C      12.74      14.20      19.85
C      10.52      12.80      20.73
C      12.27       9.60      13.04
C      13.40       6.62      11.36
C      11.12       8.96      13.46
C      14.54       7.29      10.95
C      12.57       7.47      12.13
C      13.11       8.77      12.27
C      23.06      12.64      20.38
C      19.86      14.28      20.13
C      23.19      12.61      19.00
C      19.76      14.30      21.51
C      21.07      13.67      19.72
C      21.86      13.24      20.81
C       7.29       6.39      20.46
C       7.39       2.80      20.21
C       7.34       6.51      19.08
C       7.34       2.70      21.59
C       7.37       4.15      19.80
C       7.32       5.04      20.89
C      25.85      15.71      12.83
C      28.01      18.25      11.48
C      26.93      15.06      13.41
C      26.92      18.87      10.90
C      27.62      17.09      12.17
C      26.22      16.87      12.11
C      15.08       3.27       4.89
C      13.14       2.04       3.23
C      15.18       3.35       3.48
C      13.01       2.00       4.63
C      14.23       2.74       2.68
C      13.97       2.60       5.43
C      18.45       9.69       3.94
C      18.32      13.28       4.19
C      18.39       9.57       5.32
C      18.39      13.38       2.81
C      18.34      11.93       4.60
C      18.43      11.04       3.51
C       3.81       2.90       5.75
C       4.88       2.45       2.35
C       2.63       3.50       5.33
C       6.05       1.86       2.79
C       4.07       2.84       3.43
C       4.65       2.52       4.68
C      19.21      18.34      27.55
C      21.14      19.39      29.33
C      19.10      19.66      28.02
C      21.28      18.08      28.82
C      20.06      20.17      28.90
C      20.32      17.58      27.95
C      17.02      11.30      27.67
C      14.81       8.84      29.09
C      15.95      11.98      27.11
C      15.90       8.18      29.63
C      15.23       9.97      28.36
C      16.63      10.15      28.39
C      30.49      17.40      27.56
C      29.43      20.37      29.30
C      31.67      18.02      27.17
C      28.26      19.73      29.67
C      30.24      19.51      28.52
C      29.65      18.24      28.33
S      11.05       7.30      12.92
S      14.63       8.94      11.48
S      21.81      13.31      18.20
S      21.12      13.57      22.33
S       7.42       4.97      18.28
S       7.29       4.23      22.41
S      28.43      15.87      13.08
S      25.41      18.07      11.20
S      18.30      11.11       6.11
S      18.49      11.85       2.00
S       2.53       3.60       3.60
S       6.19       1.77       4.52
S      14.43      11.20      27.45
S      17.43       8.93      29.28
S      31.77      19.66      27.75
S      28.11      18.10      29.08
S      21.92      11.05      13.09
S      23.27       5.01      11.45
S      12.39      13.80      17.20
S      11.03      12.94      23.39
S      16.43       4.31       2.59
S      11.60       1.30       5.52
S      17.85      20.85      27.49
S      22.69      17.00      29.13
O       7.35      10.75      16.25
O       7.45       7.57      17.00
O       8.94      11.45      18.97
O      10.14      10.67      14.71
O       7.24       8.84      18.89
O       9.02       8.69      14.45
O       9.54      12.81      17.27
O       8.48      13.40      14.56
O      24.77      10.60      13.97
O      25.80      13.32      14.50
O      25.39       8.50      14.54
O      25.32      11.66      18.83
O      24.12      12.11      16.93
O      18.35       5.40       8.14
O      16.58       7.55       9.84
O      15.65       4.02       7.05
O      18.38       7.23       5.51
O      15.54       5.51       9.80
O      18.42       8.53       7.40
O      17.27       4.05       5.48
O      20.19       4.60       5.49
O      21.15       5.92       9.51
O      21.20       3.86       7.40
O      19.67       7.48      10.22
O      17.21       2.79       9.60
O      19.47       3.01       9.94
O      15.95      16.16      24.33
O      17.72      15.42      21.67
O      18.65      16.63      26.02
O      15.92      19.28      23.65
O      18.76      14.70      23.58
O      15.90      18.03      21.73
O      17.02      18.08      26.61
O      14.10      18.30      26.09
O      13.16      15.08      23.31
O      13.09      16.25      26.03
O      14.64      15.04      21.61
O      17.08      13.79      26.15
O      14.82      13.57      25.85
O      15.89       3.92      32.44
O      17.02       6.49      30.79
O      22.05      21.31      30.36
O      26.15      19.53      30.66
O      14.74       6.47      30.74
O      18.74       3.80      30.95
O      22.79      19.30      31.08
O      18.54      14.47       0.75
O      11.49       0.40       2.63
O      18.25      15.72       2.65
O      12.24       1.83       1.06
O       6.97       1.36       0.69
O       8.14       0.85       2.59
O      23.07      11.98      12.50
O      20.73      11.39      12.37
O      21.94      11.07      14.53
O       3.98       5.01       9.90
O       4.90       4.69      12.11
O      22.07       4.27      11.73
O      11.24      14.69      16.58
O      13.58      14.60      17.17
O      12.38      12.48      16.62
O      10.71      14.38      24.00
O       9.80      12.21      23.42
O      12.23      12.40      23.98
O      17.77       3.53       2.96
O      16.22       4.11       1.19
O      16.44       5.63       3.16
O      20.31      17.42       5.17
O      11.86       1.41       6.92
O      10.41       1.86       4.94
O      16.52      20.20      28.07
O       9.46       4.40      28.22
O       9.24       3.18      26.05
O      22.55      16.71      30.69
O      22.45      15.75      28.46
O      23.88      17.76      28.87
F      12.57      10.88      13.31
F      23.97      12.16      21.25
F       7.23       7.42      21.32
F      24.57      15.30      12.92
F      18.53       8.67       3.08
F       4.15       2.70       7.04
F      18.31      11.67      27.56
F      30.15      16.14      27.24
