432

Zn      27.80      16.27      10.99
Zn      16.18      27.71      10.99
Zn      16.71       5.80       1.42
Zn       5.28      16.19       1.42
Zn      16.18      27.27      17.71
Zn      27.80      16.71      17.71
Zn      16.27       5.81       8.14
Zn       5.72      16.19       8.14
Zn      27.18      27.71      17.71
Zn      16.80      16.27      17.71
Zn       5.28       5.19       8.14
Zn      16.71      16.80       8.14
Zn      16.80      16.72      10.99
Zn      27.18      27.27      10.99
Zn       5.72       5.19       1.42
Zn      16.27      16.80       1.42
H      26.09      17.74      15.44
H      27.60      18.66      15.41
H      27.65      14.49      15.66
H      26.11      15.36      15.62
H      20.80      15.81      11.45
H      28.20       9.29      11.43
H      29.71      17.46      15.47
H      29.72      15.70      15.59
H      17.89      26.24      15.44
H      16.38      25.32      15.40
H      16.33      29.49      15.66
H      17.87      28.62      15.62
H      23.18      28.18      11.45
H      15.79      12.70      11.43
H      14.27      26.52      15.47
H      14.26      28.28      15.59
H      15.24       4.10       5.88
H      14.33       5.61       5.84
H      18.50       5.67       6.09
H      17.63       4.12       6.06
H      17.18      20.80       1.89
H       1.70       6.21       1.86
H      15.52       7.72       5.90
H      17.29       7.73       6.03
H       6.75      17.90       5.88
H       7.66      16.38       5.84
H      25.48      16.33       6.09
H       4.37      17.87       6.06
H       4.81       1.19       1.89
H      20.29      15.79       1.86
H       6.47      14.27       5.90
H       4.70      14.26       6.03
H      17.89      28.74      13.25
H      16.38       7.66      13.29
H      16.33      25.49      13.04
H      17.87      26.36      13.08
H      23.18      26.80      17.24
H      15.78      20.29      17.27
H      14.27      28.46      13.23
H      14.26      26.69      13.11
H      26.09      15.24      13.25
H      27.60      14.33      13.29
H      27.66      18.50      13.04
H      26.11      17.63      13.08
H      20.80      17.18      17.24
H      28.20      23.70      17.27
H       7.72      15.52      13.23
H       7.73      17.29      13.11
H      17.74       4.10       3.69
H      18.66       5.61       3.73
H      14.49       5.66       3.47
H      15.36       4.12       3.51
H      15.80      20.80       7.68
H       9.29       6.21       7.70
H      17.46       7.72       3.67
H      15.70       7.73       3.54
H       4.25      17.90       3.69
H       3.33      16.38       3.73
H       7.50      16.33       3.47
H       6.63      17.87       3.51
H       6.18      23.18       7.68
H      12.70      15.79       7.70
H       4.53      14.27       3.67
H       6.29      14.26       3.54
H      28.89      26.24      13.25
H      27.38      25.32      13.29
H      27.32       7.50      13.04
H      28.87      28.62      13.08
H      12.18      28.18      17.24
H      26.78      12.70      17.27
H      25.26      26.52      13.23
H      25.26      28.29      13.11
H      15.09      17.74      13.25
H      16.60      18.66      13.29
H      16.66      14.49      13.04
H      15.11      15.36      13.08
H      31.80      15.81      17.24
H      17.20      31.28      17.27
H      18.72      17.47      13.23
H      18.73      15.70      13.11
H       6.75       6.90       3.69
H       7.66       5.39       3.73
H       3.49       5.33       3.47
H       4.37       6.88       3.51
H       4.81      12.18       7.68
H      20.29       4.79       7.70
H       6.47       3.27       3.66
H       4.70       3.27       3.54
H      15.24      15.09       3.69
H      14.33      16.61       3.73
H      18.50      16.66       3.47
H      17.62      15.12       3.51
H      17.18       9.81       7.68
H      23.70      17.20       7.70
H      15.52      18.72       3.67
H      17.29      18.73       3.54
H      15.09      15.24      15.44
H      16.60      14.33      15.41
H      16.66      18.50      15.66
H      15.11      17.63      15.62
H       9.81      17.18      11.46
H      17.20      23.70      11.43
H      18.72      15.52      15.47
H      18.72      17.29      15.59
H      28.89      28.74      15.44
H      27.38      29.66      15.41
H      27.32      25.49      15.66
H      28.87      26.36      15.62
H      12.18      26.80      11.45
H      26.78      20.29      11.43
H      25.26      28.46      15.47
H      25.26      26.69      15.59
H       4.25       6.90       5.88
H      25.32       5.39       5.84
H       7.50       5.33       6.09
H       6.63       6.88       6.06
H       6.18      12.18       1.89
H      12.70       4.79       1.86
H       4.53      25.26       5.90
H       6.29      25.26       6.03
H      17.74      15.09       5.88
H      18.66      16.60       5.84
H      14.49      16.66       6.09
H      15.36      15.12       6.06
H      15.81       9.81       1.89
H       9.29      17.20       1.86
H      17.46      18.72       5.90
H      15.70      18.73       6.03
C      27.35       9.33       9.46
C       5.65      12.14       9.65
C       5.74      13.65       9.65
C      27.25       7.83       9.45
C      27.11      17.75      15.04
C      27.12      15.33      15.20
C      21.44      16.11      10.63
C      27.89       9.93      10.60
C      28.04      11.31      10.71
C      22.82      15.96      10.73
C      29.22      16.55      15.12
C      16.64      12.66       9.46
C      16.34       9.85       9.65
C      16.25       8.35       9.65
C      16.73      14.16       9.46
C      16.87      26.23      15.04
C      16.86      28.65      15.20
C      22.54      27.87      10.63
C      16.10      12.06      10.60
C      15.94      10.68      10.71
C      21.16      28.02      10.73
C      14.76      27.43      15.12
C      12.66      16.35      19.03
C      20.84       5.66       0.08
C      19.34       5.74       0.08
C      14.16      16.26      19.02
C      15.24       5.12       5.47
C      17.66       5.13       5.63
C      16.87      21.44       1.07
C       1.06       5.90       1.04
C      21.68       6.05       1.14
C      17.03       0.83       1.17
C      16.44       7.22       5.55
C      31.32      27.63      19.03
C       1.15      16.34       0.08
C       2.65      16.25       0.08
C      29.82      27.72      19.02
C       6.75      16.87       5.47
C       4.34      16.86       5.63
C       5.12      22.54       1.07
C      20.92      16.10       1.04
C      22.31      15.94       1.14
C       4.97      21.16       1.17
C       5.55      14.77       5.55
C       5.64       9.33       0.10
C      16.33      23.14      19.05
C      16.25      24.64      19.05
C       5.73       7.83       0.11
C      16.87      28.75      13.66
C      16.86      26.33      13.50
C      22.54      27.11      18.07
C      16.10      20.93      18.09
C      15.94      22.31      17.99
C      21.16      26.96      17.96
C      14.76      27.55      13.58
C      16.35      12.66       0.10
C      27.65      20.84      19.05
C      27.73      19.34      19.05
C      16.26      14.16       0.11
C      27.11      15.24      13.66
C      27.12      17.66      13.50
C      21.44      16.87      18.06
C      27.89      23.06      18.09
C      28.04      21.68      17.99
C      22.82      17.03      17.96
C      29.21      16.44      13.58
C       9.33      27.35       9.67
C      12.14       5.65       9.49
C      13.64       5.74       9.48
C       7.83      27.25       9.68
C      17.75       5.12       4.09
C      15.33       5.13       3.93
C      16.11      21.45       8.50
C       9.93       5.89       8.53
C      11.31       6.05       8.43
C      15.96      22.82       8.40
C      16.55       7.22       4.01
C      12.66      16.64       9.67
C       9.85      16.34       9.49
C       8.35      16.25       9.48
C      14.16      16.73       9.68
C       4.24      16.87       4.09
C       6.66      16.86       3.93
C       5.88      22.54       8.50
C      12.06      16.10       8.53
C      10.68      15.94       8.43
C       6.03      21.16       8.40
C       5.44      14.77       4.01
C      16.64       1.66       0.11
C      27.33      31.84      19.05
C      27.24      30.34      19.05
C      16.73       3.16       0.11
C      27.87      26.23      13.66
C      27.85      28.65      13.50
C      11.54      27.87      18.07
C      27.09      12.06      18.09
C      26.93      10.68      17.99
C      32.15      28.02      17.96
C      25.76      27.43      13.58
C       5.35      20.33       0.11
C      16.65      12.14      19.05
C      16.73      13.65      19.05
C       5.26      18.83       0.11
C      16.11      17.75      13.66
C      16.13      15.33      13.50
C      10.45      16.12      18.06
C      16.89      31.92      18.09
C      17.05      11.31      17.99
C      11.83      15.96      17.96
C      18.22      16.55      13.58
C      20.33       5.64       9.67
C      23.14      27.33       9.49
C      24.64      27.25       9.48
C      18.82       5.73       9.68
C       6.75       5.88       4.09
C       4.34       5.86       3.93
C       5.12      11.54       8.50
C      20.93       5.10       8.53
C      22.31       4.94       8.43
C       4.97      10.16       8.40
C       5.56       3.77       4.01
C      23.66      16.35       9.67
C      20.84      16.65       9.49
C      19.34      16.74       9.48
C      25.16      16.26       9.68
C      15.24      16.11       4.09
C      17.65      16.13       3.93
C      16.87      10.45       8.50
C      23.06      16.89       8.53
C      21.68      17.05       8.43
C      17.03      11.83       8.40
C      16.44      18.22       4.01
C      16.35      23.66       9.46
C      16.65      20.84       9.65
C      16.73      19.34       9.65
C      16.26      25.16       9.46
C      16.11      15.24      15.04
C      16.13      17.66      15.20
C      10.45      16.87      10.63
C      16.89      23.06      10.61
C      17.05      21.68      10.71
C      11.83      17.03      10.73
C      18.22      16.44      15.12
C       5.64      20.33       9.46
C      27.33      23.14       9.65
C      27.24      24.64       9.65
C       5.73      18.83       9.46
C      27.87      28.75      15.04
C      27.85      26.33      15.20
C      11.54      27.11      10.63
C      27.09      20.93      10.61
C      26.93      22.31      10.71
C      10.16      26.96      10.73
C      25.76      27.55      15.12
C      23.65      16.64      19.03
C       9.85       5.34       0.08
C       8.35       5.25       0.08
C      25.16      16.73      19.02
C       4.24       5.88       5.47
C       6.66       5.86       5.63
C       5.88      11.54       1.07
C      12.06       5.10       1.04
C      10.68       4.94       1.14
C       6.03      10.16       1.17
C       5.44       3.77       5.55
C      20.32      27.35      19.03
C      12.14      16.65       0.08
C      13.64      16.73       0.08
C      18.82      27.25      19.02
C      17.75      16.11       5.47
C      15.33      16.13       5.63
C      16.11      10.45       1.07
C       9.93      16.89       1.04
C      11.31      17.05       1.14
C      15.96      11.83       1.17
C      16.55      18.22       5.55
N      27.82      16.58      15.63
N      16.16      27.40      15.63
N      16.41       5.83       6.06
N       5.58      16.16       6.06
N      16.16      27.58      13.07
N      27.82      16.41      13.07
N      16.58       5.83       3.50
N       5.41      16.16       3.50
N      27.16      27.40      13.07
N      16.82      16.58      13.07
N       5.58       5.17       3.50
N      16.41      16.82       3.50
N      16.82      16.41      15.63
N      27.16      27.58      15.63
N       5.41       5.17       6.06
N      16.58      16.82       6.06
Cl      21.07      17.79       6.99
Cl      23.44      15.23      12.18
Cl      22.92       4.20       6.98
Cl      20.54      28.75      12.18
Cl      26.19      10.07      16.55
Cl      17.76      23.44       2.61
Cl      17.79      11.92      16.55
Cl       4.23      20.54       2.61
Cl      11.92      17.79       2.58
Cl      20.54      26.23      16.52
Cl      10.07       4.20       2.58
Cl      23.44      17.76      16.52
Cl      17.79      21.07      12.15
Cl      15.23      23.44       6.95
Cl      26.19      22.92      12.15
Cl       6.76      20.54       6.95
Cl      22.92      15.20       2.58
Cl       9.55      28.75      16.52
Cl      21.07       6.80       2.58
Cl      12.44      15.23      16.52
Cl      28.79      11.92      12.15
Cl       4.24       9.55       6.95
Cl      15.20      10.07      12.15
Cl      17.76      12.44       6.95
Cl      10.07      15.20       6.99
Cl      12.44      17.76      12.18
Cl      11.92       6.80       6.98
Cl       9.55      26.23      12.18
Cl      15.19      22.92      16.55
Cl       6.76       9.55       2.61
Cl      28.79      21.07      16.55
Cl      15.23      12.44       2.61
O       6.01      14.19       8.53
O      27.49      14.25      10.74
O       5.58       7.22       8.38
O      25.70      15.91       8.58
O      15.98       7.81       8.53
O      16.49       7.74      10.74
O      16.41      14.77       8.38
O      18.28       6.08       8.58
O      29.80      17.00      18.09
O      18.74       5.50       1.17
O      14.76      16.58      17.95
O      28.07      14.70      18.14
O      14.18      26.98      18.09
O       3.25      16.49       1.17
O      29.21      27.41      17.95
O      15.91      29.28      18.15
O       4.99      14.18       1.04
O      16.49      25.24      17.96
O       5.42       7.22       1.18
O       7.29      15.91       0.99
O      17.00       7.81       1.04
O      27.49      18.74      17.96
O      16.57      14.77       1.18
O      14.70       6.08       0.99
O      14.18      28.00      10.60
O      14.25       5.50       8.39
O       7.22      27.57      10.75
O      15.91      25.70      10.55
O       7.80      15.98      10.60
O       7.74      16.49       8.39
O      14.77      16.41      10.75
O       6.08      18.29      10.55
O      15.98      18.80       1.04
O      27.48      29.73      17.96
O      16.41       3.77       1.18
O      18.28      17.08       0.99
O       6.01       3.19       1.04
O      16.49      14.25      17.96
O       5.58      18.22       1.18
O       3.70       4.91       0.99
O      25.18      26.98      10.60
O      25.24       5.49       8.39
O      18.22      27.41      10.75
O      26.90       7.29      10.55
O      18.80      17.00      10.60
O      18.74      16.50       8.39
O      25.76      16.58      10.75
O      17.08      14.70      10.55
O      17.00      18.80       8.53
O      16.50      18.74      10.74
O      16.57      25.76       8.39
O      14.70      17.08       8.58
O       4.99      25.18       8.53
O      27.48      25.24      10.74
O       5.42      18.22       8.39
O       7.29      26.90       8.58
O      18.80      15.98      18.09
O       7.74       5.50       1.17
O      25.76      16.41      17.95
O      17.08      18.28      18.14
O      25.18      28.00      18.09
O      14.25      16.49       1.17
O      18.22      27.57      17.95
O      26.90      25.70      18.14
