208

Zn      10.44       1.73       7.90
Zn      10.18      14.16       8.69
Zn      14.64      11.06       0.78
Zn       5.98       6.72      15.91
Zn      12.69      16.14       7.46
Zn       7.41      16.74       8.35
Zn       8.17       9.14      15.72
Zn      12.03       8.40       0.37
H      10.61       3.19       5.29
H       6.97      15.57      10.95
H      10.78       2.96      10.65
H       9.36      13.19       5.94
H       5.01      12.50      14.34
H       1.00       5.46       2.47
H      11.41       9.58       2.98
H       5.88       5.60      13.04
H       7.99      11.68       8.39
H      12.37       3.86       9.57
H      11.28      13.52      11.73
H       8.84       4.25       6.18
H      18.95       4.18      14.21
H      15.62      11.47       3.92
H       2.50       4.45       1.13
H      12.35      13.46       0.39
H       6.21       0.89       5.52
H      14.38      16.09      10.13
H      15.50       1.01       8.69
H       6.26      15.00       6.23
H      16.44      10.07      14.22
H       5.52       7.54       0.88
H       4.26       9.00       2.25
H      16.04       7.37      13.84
H      15.29      12.67      11.05
H       4.55       4.08       5.31
H       4.70      10.61       7.69
H      17.22       4.03       9.42
H       7.29       4.37       1.25
H      14.67      14.46      15.58
H      14.50       4.22      13.51
H       5.09      12.34       3.12
H       6.46       1.96       2.50
H      15.43      15.98      13.29
H      15.33       1.83      12.18
H       4.44      13.89       5.43
H      14.55      11.15      13.35
H       5.37       6.50       4.03
H       5.36       9.07       5.40
H      16.38       6.40      10.73
H       3.84       3.02       2.77
H      17.31      13.98      12.60
H      17.95       2.92      11.92
H       2.64      11.87       6.26
H      12.69      13.16      14.06
H       8.00       5.43       3.78
H       7.19      11.08       4.59
H      13.76       5.32      10.99
H       9.03      12.64       3.38
H       9.66       5.45      11.57
H       7.54      13.24      11.43
H      12.23       4.83       4.75
H       7.11       3.89      12.23
H      12.01      11.91       3.27
H      13.85       2.89       3.00
H       4.55      12.61      11.74
H      14.56      13.72       5.30
H      13.80      13.32       3.86
H       5.83       0.99      10.39
H       5.94       2.26      11.58
H      17.30      13.16       9.69
H      17.15      14.12       8.33
H      13.94      15.97       4.45
H      14.59       0.66       3.82
H      10.39       7.78      14.05
H      10.38       7.61      12.41
H      12.83      10.96      16.04
H       7.41      12.00       1.22
H      10.72       5.95       3.42
H      10.54       7.38       2.51
H       9.51      10.10      13.04
H       8.96      11.14      11.85
C      11.30       2.35       5.30
C       6.12      15.31      10.32
C       9.81       2.50      10.51
C      10.40      13.48       5.87
C       5.99      12.05      14.23
C      14.52       5.95       2.41
C      10.63       9.81       2.26
C       6.69       6.30      13.22
C       4.77       3.56       3.00
C      16.27      13.79      12.91
C      17.01       3.45      11.72
C       3.65      11.70       5.87
C      13.72      13.34      13.72
C       7.07       4.90       3.55
C       6.17      11.26       4.95
C      14.70       4.78      11.21
C       9.93      12.08       3.10
C       8.67       5.24      11.97
C       6.65      12.81      11.90
C      12.92       4.54       3.94
C       8.11       4.02      11.80
C      11.12      12.42       3.66
C      13.16       3.22       3.79
C       5.44      13.13      11.36
C       7.71      12.64       7.96
C      12.97       3.02       9.24
C      11.92      14.18      11.14
C       8.30       3.31       6.20
C      18.35       5.08      14.28
C       1.77      10.84       3.31
C       3.09       5.35       0.94
C      17.63      12.49      16.08
C      12.53      13.77       5.36
C       7.68       1.86      10.59
C       4.35      14.44       9.34
C      12.93       0.90       4.94
C       8.56       7.47      13.28
C       8.94      10.65       1.10
C      12.45       6.66       2.69
C       7.98      11.34      13.58
C       6.96       1.59       5.85
C      13.50      15.49      10.32
C      14.57       1.58       8.79
C       6.86      14.34       6.84
C      16.95      10.76      14.89
C       4.63       6.92       0.82
C       3.37       9.58       2.45
C      16.87       6.71      14.09
C      12.51       2.21       4.61
C       5.28      14.20      10.40
C       8.57       2.87      11.06
C      11.32      13.23       4.84
C       6.85      12.08      13.14
C      13.34       5.64       3.09
C       9.81      10.94       2.21
C       8.01       6.29      12.73
C       6.75      12.94       7.00
C      14.32       2.76       9.51
C      13.20      14.67      11.42
C       7.28       2.86       5.34
C      17.23       5.47      13.53
C       3.06      10.36       3.58
C       4.40       5.64       1.35
C      16.76      12.15      15.03
C       6.21       2.97       2.84
C      15.24      14.90      13.30
C      15.57       2.86      11.88
C       4.65      12.82       5.41
C      14.75      12.23      13.33
C       5.63       5.48       3.71
C       5.16      10.14       5.40
C      16.14       5.38      11.05
C      15.18      13.05      12.08
C       5.15       4.16       4.39
C       4.79      10.99       6.67
C      16.61       4.07      10.33
C       6.69       4.30       2.15
C      14.82      14.07      14.57
C      15.09       4.16      12.59
C       5.03      11.98       4.15
C      14.12      14.17      12.45
C       6.61       3.57       4.25
C       5.80      12.13       6.22
C      15.16       3.47      10.48
C       5.22       4.89       2.30
C      15.85      12.94      14.18
C      16.54       4.77      12.45
C       4.00      10.86       4.60
N      11.02       1.25       6.02
N       5.74      16.12       9.29
N       9.69       1.38       9.75
N      11.01      14.08       6.91
N       6.55      11.38      15.26
N      14.37       7.06       1.64
N      10.31       8.95       1.26
N       6.49       7.37      14.04
N       8.33      13.78       8.37
N      12.45       2.06       8.45
N      11.50      14.67       9.94
N       8.57       2.38       7.14
N      18.64       6.01      15.22
N       1.38      10.41       2.09
N       2.57       6.37       0.24
N      12.79      11.38       0.39
N      12.35      14.27       6.60
N       8.36       0.97       9.82
N       4.64      15.56       8.67
N      12.04       0.34       5.81
N       7.64       8.10      14.04
N       9.25       9.48       0.53
N      13.06       7.50       1.82
N       7.81      10.94      14.86
N       7.73       1.32       6.92
N      12.48      15.47       9.43
N      13.45       1.17       8.17
N       7.81      14.84       7.65
N      17.84      10.30      15.78
N       3.53       7.35       0.16
N       2.36       9.63       1.55
N      17.71       7.02      15.09
N      13.75      13.89       4.70
N       6.33       1.81      10.76
N       3.30      13.61       8.93
N      14.08       0.22       4.58
N       9.87       8.00      13.20
N       7.96      11.47       0.55
N      11.15       6.82       3.11
N       9.12      11.03      12.85
