102

Zn      -2.29       9.13       9.82
Zn       8.59       6.37       9.44
H      -0.61      10.67       8.16
H       6.50       5.10      10.88
H       7.60      -0.27      10.90
H      -1.44      15.83       8.67
H       7.80       9.07      13.97
H      -0.96       6.86       5.39
H       7.04       5.80      18.06
H      -0.56       9.68       1.20
H       7.17       7.29       0.98
H      -0.68       8.18      18.27
H       3.48       5.71       8.48
H       5.20       6.18       8.54
H       1.11       9.44       8.89
H       2.81       9.90       8.83
H      -1.19      15.10      11.85
H      -2.28      13.96      12.58
H       8.89       1.25       7.34
H       7.69       0.19       8.02
H       3.03      14.40      11.36
H       1.87      13.30      10.87
H       4.29       2.26       8.64
H       3.13       1.13       8.17
H       5.30      10.26      10.36
H       3.82       9.73      10.89
H       0.98       5.10       9.91
H       2.45       5.52      10.53
H       6.87       9.64      16.15
H       7.37       8.88      17.59
H      -0.43       7.05       1.79
H       0.18       6.48       3.28
C       8.76       8.09       7.05
C      -2.44       7.46      12.20
C      -2.39       7.27      13.70
C       8.74       8.26       5.55
C       7.80       6.32      18.65
C      -1.30       9.14       0.60
C       7.99       7.81       0.48
C      -1.49       7.65      18.77
C      -2.35       8.48       1.26
C      -2.45       6.99      18.00
C      -1.99      12.06      10.79
C       8.32       3.36       8.77
C      -1.41      13.35      10.83
C       7.75       2.07       8.82
C      -0.45      13.66       9.83
C       6.63       1.89       9.68
C      -0.15      12.68       8.89
C       6.18       3.00      10.41
C      -0.79      11.44       8.91
C       6.81       4.23      10.30
C       1.40      15.25      10.47
C       4.75       0.31       9.10
C       0.05       7.24       9.52
C       6.24       8.22       9.61
C       6.65      -0.49      10.41
C      -0.50      16.05       9.16
C       5.99       0.55       9.74
C       0.17      15.01       9.82
C       1.48       6.96       9.44
C       4.81       8.51       9.57
C       2.42       7.93       9.10
C       3.88       7.62       9.07
C      -1.74       6.19      14.32
C       7.84       9.10       4.87
C      -1.75       6.10      15.72
C       7.92       9.18       3.47
C      -2.42       7.06      16.51
C      -2.43       8.44       2.74
C       8.22       8.13      15.87
C      -1.53       7.60       3.44
C       8.27       8.23      14.48
C      -1.62       7.52       4.83
Br       1.14      13.00       7.54
Br       4.70       2.85      11.59
Br      -0.81       4.91      13.26
Br       6.47      10.02       5.81
Br      -0.86       4.68      16.61
Br       6.74      10.32       2.50
Br      -3.28      11.62      12.11
Br       9.80       3.66       7.63
N      -1.68      11.15       9.87
N       7.87       4.39       9.48
N       4.21       6.43       8.47
N       2.08       9.20       8.72
N      -1.78      14.28      11.76
N       8.26       1.03       8.10
N       2.04      14.24      11.19
N       4.11       1.30       8.35
N       4.43       9.80      10.08
N       1.85       5.60       9.71
N       7.59       9.12      16.62
N      -0.63       6.80       2.76
O      -2.59       9.14       7.76
O       8.31       6.54      11.52
O       8.88       6.90       7.46
O      -1.96       8.55      11.77
O      -0.38       8.45       9.33
O       6.68       7.09       9.17
O      -0.73       6.24       9.77
O       7.00       9.14      10.10
