194

Al      -1.56       6.32      14.21
Al       9.47       3.58      14.19
Al       7.94       6.16      14.22
Al       1.44       0.89       0.08
Al       4.66       0.94       0.03
Al       3.00       3.12      28.40
H       7.98       1.73      22.18
H       6.05       1.05      20.19
H       8.46       4.17      20.84
H       6.43       5.41      22.39
H       4.53       4.73      20.40
H       4.05       2.27      21.73
H       7.79       7.39      22.99
H       7.57       7.16      20.66
H      -5.36       9.52      20.30
H      -5.21       9.93      22.60
H       2.57      -0.28      22.33
H      -1.48       7.71      20.38
H      -1.52       9.44      20.06
H      -1.26       8.19      22.66
H      -3.56       6.37      20.62
H      -3.30       6.68      22.93
H      -1.50       9.92      22.35
H       0.30       5.47      22.52
H      -0.19       5.62      20.23
H       1.43       2.29      19.77
H       1.71       4.03      19.92
H       2.12       3.72      22.21
H       1.66       2.02      22.10
H      10.42       2.50      20.38
H      -0.94       1.38      20.18
H      10.73       2.51      22.71
H      -1.82       5.00      20.51
H      -1.37       4.98      22.82
H      -0.72       1.30      22.52
H       5.58       5.64       5.89
H       5.83       5.72       8.22
H       4.95       2.06       8.39
H       4.26       3.68       8.52
H       4.04       3.81       6.19
H       4.58       2.13       6.10
H       8.49       3.14       7.96
H       7.45       1.73       8.23
H       8.21       2.82       5.67
H       7.57       5.45       8.02
H       6.96       1.59       5.94
H      -1.45       8.06       5.82
H      -1.56       7.71       8.16
H      -3.05      11.03       8.85
H      -1.55      10.11       8.73
H       3.31       0.33       6.60
H       7.42       8.13       7.93
H      -5.29       9.84       8.37
H       7.62       8.74       5.66
H      -3.06       6.83       7.87
H      -3.04       7.37       5.61
H      -5.03      10.44       6.12
H      -1.60       2.74       5.57
H      10.69       2.66       7.87
H       1.64       2.41       8.59
H       0.17       1.48       8.33
H       0.53       1.50       6.01
H       2.04       2.37       6.28
H       0.01       5.77       8.31
H       1.54       4.96       8.63
H       0.52       5.80       6.02
H      -2.10       4.43       7.90
H      -1.64       4.50       5.62
H       2.02       4.94       6.33
H      -0.17       9.16       6.83
H       0.36      10.56       7.80
H       0.81      10.43       6.07
H       0.45       7.22      15.02
H       5.86      10.25      27.82
C      -1.28       3.94      16.08
C       7.33       4.06      16.03
C      -3.45       7.58      16.20
C      -1.26       4.03      12.30
C       7.36       4.07      12.34
C      -3.48       7.72      12.36
C       6.15       2.02      20.69
C       7.21       2.39      21.77
C       5.58       2.78      25.22
C       6.86       3.74      17.35
C       5.03       2.70      21.52
C       6.08       3.08      22.65
C       5.29       4.07      20.81
C       6.42       3.38      19.93
C       6.35       4.45      21.89
C       7.48       3.75      21.06
C       5.84       2.92      24.04
C       6.64       3.56      18.54
C      -4.08       7.27      20.96
C      -4.33       9.70      20.62
C      -4.21       9.93      22.14
C      -3.22       9.44      25.38
C      -3.47       8.48      20.19
C      -3.94       7.46      22.49
C      -3.32       8.84      22.79
C      -1.91       8.92      22.16
C      -1.99       8.64      20.64
C      -3.26       9.11      24.21
C      -3.54       8.25      18.76
C      -3.55       8.04      17.57
C      -0.76       4.81      20.71
C       1.12       3.19      20.32
C       1.34       3.04      21.84
C       0.55       3.06      25.21
C      -0.37       3.47      20.03
C      -0.47       4.74      22.23
C       0.02       3.33      22.61
C      -1.04       2.29      22.18
C      -1.23       2.33      20.65
C       0.28       3.22      24.03
C      -0.61       3.56      18.61
C      -0.83       3.65      17.42
C       6.57       5.06       7.77
C       5.03       3.08       8.01
C       4.84       3.12       6.48
C       5.79       3.34       3.13
C       6.43       3.64       8.38
C       6.40       5.02       6.24
C       6.15       3.55       5.76
C       7.28       2.60       6.22
C       7.50       2.72       7.75
C       5.96       3.48       4.33
C       6.63       3.72       9.82
C       6.86       3.82      11.01
C      -2.56       7.79       7.70
C      -2.55      10.23       8.28
C      -2.43      10.61       6.79
C      -2.95      10.18       3.34
C      -3.33       8.91       8.45
C      -2.48       8.11       6.19
C      -3.08       9.50       5.91
C      -4.58       9.46       6.32
C      -4.73       9.07       7.81
C      -2.97       9.85       4.51
C      -3.43       8.57       9.86
C      -3.50       8.28      11.04
C      -1.47       3.57       7.60
C       0.70       2.38       8.02
C       0.97       2.38       6.49
C       0.85       3.57       3.23
C      -0.15       3.62       8.40
C      -1.18       3.62       6.08
C       0.35       3.65       5.84
C       0.94       4.91       6.51
C       0.62       4.91       8.02
C       0.62       3.63       4.42
C      -0.46       3.63       9.82
C      -0.77       3.70      10.99
C      -3.22      10.07      26.67
C       5.06       2.53      26.54
C       1.01       2.70      26.52
C      -3.02      10.73       2.02
C       5.34       3.04       1.80
C       1.27       3.28       1.89
C       0.01      10.24       6.81
N       7.61       5.58       5.53
N       2.40      -0.27      19.83
O      -2.30       7.31      15.78
O      -0.89       5.03      15.56
O      10.62       3.09      15.55
O       8.10       3.21      15.46
O       6.99       5.20      15.56
O       8.15       7.44      15.56
O      -2.35       7.51      12.88
O      -1.00       5.19      12.72
O      -1.98       3.14      12.90
O       8.20       3.23      12.81
O       6.99       5.16      12.90
O       8.09       7.43      12.89
O      -3.21       5.34      14.22
O       0.73       1.54      26.93
O      -4.35      10.34      27.19
O      -2.07      10.38      27.16
O       5.39       1.44      27.11
O       4.25       3.41      27.01
O       1.72       3.58      27.14
O       0.84       2.22       1.36
O      -4.16      11.08       1.61
O      -1.90      10.87       1.37
O       5.65       1.89       1.33
O       4.61       3.91       1.22
O       2.10       4.11       1.35
O       3.13       1.81       0.02
O       8.73       5.21       5.93
O       7.42       6.35       4.59
O      -1.11      11.00       6.37
O       1.68       0.05      18.88
O       3.43       0.33      20.17
O      -0.08       7.25      14.21
O      12.60       0.08       0.13
