184

Zn      -0.01      10.78       1.50
Zn      10.77       0.97      14.58
Zn       0.01      11.73      14.62
Zn      10.77       0.02       1.46
H      -0.06       9.75      12.54
H       0.08       9.60      10.03
H       0.11       8.69       6.23
H       0.03      13.00       6.17
H      10.72       1.99       3.54
H      10.87       2.15       6.05
H      10.88       3.06       9.85
H      10.84      -1.24       9.90
H      -7.78       3.93      13.94
H      -6.28       5.45      12.68
H       2.94      13.78       2.14
H       7.80      18.53       2.13
H       6.26      17.04       3.39
H      -3.00       8.77      13.93
H       7.76      -1.97      13.96
H       6.23      -3.48      12.71
H      18.61       7.76       2.16
H      13.75       3.02       2.19
H      15.30       4.49       3.43
H       2.99      -6.83      13.99
H      -7.80      -2.03      13.92
H      -6.26      -3.53      12.68
H       2.97       7.83       2.12
H       7.74       2.98       2.17
H       6.23       4.50       3.40
H      -2.93      -6.79      13.96
H       7.79       3.97      13.89
H       6.25       5.46      12.65
H      18.56      13.72       2.10
H      13.80      18.58       2.13
H      15.30      17.05       3.38
H       2.93       8.73      13.93
H      -0.25      -7.40      13.55
H       0.47      -6.60      12.20
H      -0.02      14.11       8.79
H      -0.46      14.95      10.22
H      -0.36       8.46       2.62
H      -0.10       7.62       4.10
H       0.33      13.14       2.56
H       0.12      14.01       4.03
H      10.43      19.15       2.54
H      11.15      18.34       3.89
H      10.76      -2.35       7.30
H      10.29      -3.20       5.89
H      10.41       3.29      13.46
H      10.66       4.13      11.97
H      11.12      -1.39      13.51
H      10.92      -2.26      12.04
C      19.72       8.94       0.01
C      -8.95      -0.85      16.07
C      -8.95       2.81      16.07
C       8.94       2.80      16.05
C       8.94       1.85       0.05
C      12.60       1.84       0.05
C       1.83       9.90      16.07
C      -1.83       9.89      16.04
C      -0.02      10.64      11.91
C       0.05      10.56      10.54
C       0.08      11.75       9.79
C       0.05      12.99      10.46
C      -0.01      12.98      11.89
C       0.08       9.63       5.68
C       0.07      10.85       6.36
C       0.03      12.05       5.65
C       0.01      12.00       4.25
C       0.02       9.64       4.27
C      10.75       1.10       4.18
C      10.83       1.19       5.54
C      10.85      -0.00       6.30
C      10.80      -1.24       5.63
C      10.73      -1.24       4.20
C      10.86       2.13      10.40
C      10.86       0.91       9.71
C      10.83      -0.29      10.42
C      10.80      -0.25      11.82
C      10.80       2.11      11.81
C      -7.39       4.35      14.87
C      -6.41       5.34      14.85
C      -5.89       5.85      13.62
C       3.34      14.17       1.21
C       4.34      15.15       1.24
C       4.89      15.70       2.46
C       7.40      18.14       1.20
C       6.39      17.16       1.22
C       5.87      16.65       2.45
C      -3.39       8.35      14.85
C      -4.38       7.36      14.83
C      -4.92       6.81      13.61
C      -7.90       3.87      16.08
C       4.86      15.65       0.01
C      -2.89       8.83      16.07
C      -4.89       6.85      16.07
C       7.38      -2.39      14.89
C       6.39      -3.38      14.88
C       5.85      -3.88      13.65
C      18.20       7.37       1.23
C      17.20       6.39       1.27
C      16.66       5.84       2.49
C      14.15       3.41       1.25
C      15.15       4.39       1.26
C      15.69       4.89       2.49
C       3.38      -6.41      14.91
C       4.36      -5.41      14.87
C       4.89      -4.85      13.65
C      18.67       7.88       0.02
C      16.66       5.90       0.04
C      13.66       2.91       0.05
C      15.65       4.90       0.02
C      -7.40      -2.42      14.86
C      -6.40      -3.40      14.85
C      -5.87      -3.92      13.62
C       3.37       7.41       1.20
C       4.35       6.41       1.24
C       4.88       5.86       2.46
C       7.36       3.39       1.23
C       6.37       4.38       1.24
C       5.84       4.90       2.46
C      -3.35      -6.39      14.89
C      -4.35      -5.41      14.84
C      -4.90      -4.87      13.63
C      -7.89      -1.91      16.07
C       4.87       5.89       0.00
C       7.88       2.91       0.03
C      -4.89      -4.91      16.08
C       7.39       4.36      14.83
C       6.39       5.34      14.82
C       5.86       5.85      13.59
C      18.16      14.13       1.18
C      17.17      15.13       1.22
C      16.64      15.68       2.43
C      14.17      18.16       1.19
C      15.15      17.16       1.21
C      15.68      16.65       2.43
C       3.35       8.34      14.85
C       4.35       7.35      14.82
C       4.89       6.81      13.60
C       7.88       3.86      16.04
C       5.89       5.84      16.06
C       2.89       8.84      16.07
C       4.88       6.85      16.05
Br      -4.28       7.44      11.93
Br       4.24      15.08       4.14
Br       4.21      -5.45      11.97
Br      17.33       6.46       4.17
Br      -4.24      -5.51      11.95
Br       4.23       6.50       4.13
Br       4.23       7.44      11.92
Br      17.28      15.03       4.11
N      -0.04      11.83      12.58
N       0.06      11.84       8.39
N       0.12      10.73       7.77
N      -0.00      10.81       3.57
N      10.71      -0.09       3.51
N      10.84      -0.09       7.69
N      10.91       1.02       8.30
N      10.78       0.94      12.51
N      -0.10      -7.37      12.54
N       0.08      14.20       9.80
N       0.00       8.48       3.57
N      -0.03      13.15       3.52
N      10.59      19.11       3.55
N      10.84      -2.45       6.29
N      10.77       3.28      12.50
N      10.76      -1.40      12.55
O      20.37       9.13       1.10
O       9.14      -0.23      15.00
O      -9.59      -0.67      14.98
O       1.63       9.58       1.07
O      -9.14       2.17      14.99
O       1.17      12.42       1.08
O      19.90      11.96       1.05
O       9.59       2.62      14.95
O      -1.23      -8.20      15.03
O       9.17       1.28       1.16
O      12.04       1.59       1.17
O       1.58      -8.51      15.02
O      12.34      20.26       1.11
O       1.27      10.16      14.96
O      -1.60      10.47      14.94
O       9.53      19.94       1.07
