71

Al       3.83       4.30       7.46
Al       0.18      12.92       2.49
H       2.53       8.65       2.51
H       0.62      11.14       6.87
H       2.36      11.24       7.21
H       2.25       9.02       8.42
H       0.52       8.92       8.06
H       2.53      15.07       6.16
H       0.62      17.60       1.83
H       2.36      17.85       1.58
H       2.25       2.78       2.89
H       0.52       2.52       3.16
H       2.53      23.64      13.70
H       0.62      18.62      13.67
H       2.36      18.27      13.58
H       2.25      18.34      11.06
H       0.52      18.69      11.15
H       3.71       5.45       4.63
H       3.71      18.51       7.87
H       3.71       6.18       9.86
C       1.86      21.58       9.52
C       1.86       6.07       6.38
C       1.86      19.71       6.47
C       2.17      11.15       3.53
C       2.17      14.70       3.49
C       2.17      12.89       0.44
C       2.11       9.86       4.26
C       1.97       7.34       5.62
C       1.84       9.77       5.62
C       2.23       7.41       4.23
C       1.80       8.55       6.29
C       2.32       8.65       3.58
C       1.55      10.57       6.88
C       1.49       9.18       7.63
C       2.11      15.98       4.25
C       1.97      18.42       5.75
C       1.84      17.20       3.64
C       2.23      17.18       6.39
C       1.80      18.39       4.37
C       2.32      16.00       5.64
C       1.55      17.90       2.32
C       1.49       2.02       3.15
C       2.11      21.52      13.87
C       1.97      21.60      11.00
C       1.84      20.38      13.11
C       2.23      22.77      11.76
C       1.80      20.42      11.72
C       2.32      22.71      13.16
C       1.55      18.89      13.17
C       1.49      18.94      11.59
C       2.39       6.18       3.37
C       2.39      17.05       7.88
C       2.39       6.91      11.12
O       2.75      20.59       6.21
O       2.75      20.92       8.89
O       2.75       5.86       7.27
O       0.87      19.91       7.27
O       0.87       5.28       6.15
O       0.87      22.17       8.95
O       3.11      13.52       1.01
O       3.11      11.33       2.70
O       3.11      13.89       3.75
O       1.24      12.24       1.04
O       1.24      14.50       2.63
O       1.24      12.00       3.79
O       3.15       5.17       3.87
O       1.84       6.06       2.29
O       3.15      17.99       8.50
O       1.84      16.17       8.52
O       3.15       6.98      10.00
O       1.84       7.90      11.56
