108

Zn      -1.24       7.06       4.30
Zn       5.51       8.13       3.97
Zn       2.13       7.89       5.06
Zn      -2.93       0.44       9.36
Zn       3.82       0.19       8.27
Zn       0.44      -0.63       9.03
H      -3.36      -2.72      12.92
H       0.02      -2.13       4.51
H       3.39       4.85       9.23
H      -1.67       5.56       8.82
H       1.71      12.55       4.10
H       5.08       4.97       0.41
H      -2.83      -3.84      10.90
H       0.55       0.17       4.55
H       3.92       3.67      11.20
H      -1.14       7.87       8.78
H       2.23      11.37       2.13
H       5.61       3.85       2.42
H      -1.09      -3.81      11.32
H       2.28      -0.21       4.37
H      -4.47       4.01      10.97
H       0.60       7.49       8.96
H       3.97      11.70       2.36
H       7.34       3.89       2.01
H      -0.71       5.48       1.66
H       6.04      11.22       3.91
H       2.67       6.39       7.75
H      -2.39       3.52       9.41
H       4.35      -1.31       5.57
H       0.98      -2.22      11.67
H       3.44       6.45       2.48
H       0.07      10.02       4.35
H      -3.31       6.61       6.50
H       1.76       2.32       8.98
H      -1.62      -1.08       6.82
H       5.13      -1.25      10.85
C       1.54       5.68       1.55
C      -1.83      11.21       4.14
C       4.92       6.20       7.63
C      -0.14       3.51       9.18
C       6.60      -1.50       5.70
C       3.23      -2.02      11.78
C       1.98       5.13       0.26
C      -1.39      12.59       4.31
C       5.36       5.36       8.75
C       0.29       4.90       9.02
C       7.04      -2.34       4.57
C       3.67      -2.57      13.06
C      -2.03      -3.23      11.34
C       1.35      -0.52       4.85
C       4.73       3.75      10.46
C      -0.34       7.18       8.47
C       3.04      11.44       2.87
C       6.41       4.46       1.98
C       0.24       5.81       2.07
C      -3.13      10.69       4.00
C       3.62       6.58       7.26
C      -1.44       3.00       9.33
C       5.30      -1.11       6.07
C       1.93      -1.89      11.26
C      -1.87      -1.98      10.48
C       1.51      -0.39       6.38
C       4.88       2.37       9.80
C      -0.18       7.30       6.95
C       3.19      10.06       3.53
C       6.57       5.72       2.85
C       2.37       6.31       2.50
C      -1.01      10.07       4.22
C       5.74       6.70       6.61
C       0.68       2.38       9.11
C       7.43      -0.99       6.71
C       4.05      -1.39      10.83
N       0.30       6.47       3.24
N      -3.08       9.35       3.98
N       3.67       7.26       6.11
N      -1.39       1.66       9.34
N       5.36      -0.43       7.22
N       1.99      -1.23      10.09
N      -2.37      -2.91      12.71
N       1.00      -1.86       4.45
N       4.38       4.77       9.49
N      -0.68       5.84       8.88
N       2.69      12.46       3.83
N       6.07       4.78       0.62
N       1.61       6.78       3.50
N      -1.77       8.96       4.12
N       4.98       7.34       5.70
N      -0.08       1.27       9.20
N       6.67      -0.36       7.63
N       3.29      -0.91       9.82
O      -0.93      -1.96       9.62
O       2.45       0.34       6.82
O       5.83       1.62      10.21
O       0.76       8.03       6.51
O       4.14       9.31       3.12
O      -2.61       5.73       3.70
O      -0.18      -2.69      13.31
O       3.20      -2.49       4.35
O      -3.55       5.17       9.00
O       1.51       5.21       8.98
O       4.89      12.87       4.33
O       8.26       5.01       0.02
O      -2.72      -1.05      10.67
O       0.66      -1.02       7.09
O       4.03       2.07       8.90
O      -1.03       6.68       6.24
O       2.34       9.76       4.43
O       5.72       6.65       2.66
