156

Cu       4.16       6.68       0.00
Cu      14.37       7.97      30.65
Cu      10.33       7.97      15.33
Cu       8.19       6.68      15.33
H      16.08      12.43       4.85
H       2.45       2.22       4.85
H       9.91       2.22      10.47
H       8.61      12.42      10.47
H       2.45       2.22      25.80
H      16.08      12.43      25.80
H       8.61      12.42      20.18
H       9.91       2.22      20.18
H      17.81      13.74       5.63
H       0.71       0.91       5.63
H      11.64       0.91       9.69
H       6.88      13.74       9.69
H       0.71       0.91      25.02
H      17.81      13.74      25.02
H       6.88      13.74      20.96
H      11.64       0.91      20.96
H       6.84       9.52       5.47
H      11.68       5.13       5.47
H      13.02       5.14       9.86
H       5.50       9.51       9.86
H      11.68       5.13      25.18
H       6.84       9.52      25.18
H       5.50       9.51      20.80
H      13.02       5.14      20.80
H      15.30      11.16       2.85
H       3.22       3.49       2.85
H       9.13       3.49      12.47
H       9.39      11.16      12.47
H       3.22       3.49      27.80
H      15.30      11.16      27.80
H       9.39      11.16      18.18
H       9.13       3.49      18.18
H       6.06       8.27       3.46
H      12.46       6.38       3.46
H      12.24       6.39      11.87
H       6.29       8.26      11.87
H      12.46       6.38      27.19
H       6.06       8.27      27.19
H       6.29       8.26      18.79
H      12.24       6.39      18.79
H       6.17      10.01       7.66
H      12.35       4.63       7.66
H      12.35       4.63      22.99
H       6.17      10.01      22.99
H       5.70       4.71       0.77
H      12.82       9.94       0.77
H      11.88       9.94      14.55
H       6.64       4.71      14.55
H      12.82       9.94      29.88
H       5.70       4.71      29.88
H       6.64       4.71      16.10
H      11.88       9.94      16.10
C       3.96       8.84       1.87
C      14.56       5.80       1.87
C      10.14       5.80      13.46
C       8.38       8.84      13.46
C      14.56       5.80      28.79
C       3.96       8.84      28.79
C       8.38       8.84      17.19
C      10.14       5.80      17.19
C       6.17      13.91       7.66
C      12.35       0.74       7.66
C      12.35       0.74      22.99
C       6.17      13.91      22.99
C       5.33      11.06       5.31
C      13.19       3.59       5.31
C      11.51       3.59      10.02
C       7.01      11.06      10.02
C      13.19       3.59      25.35
C       5.33      11.06      25.35
C       7.01      11.06      20.63
C      11.51       3.59      20.63
C       4.46       9.63       3.04
C      14.07       5.02       3.04
C      10.63       5.02      12.29
C       7.89       9.63      12.29
C      14.07       5.02      27.62
C       4.46       9.63      27.62
C       7.89       9.63      18.36
C      10.63       5.02      18.36
C      16.60      11.52       4.54
C       1.92       3.13       4.54
C      10.43       3.13      10.78
C       8.09      11.52      10.78
C       1.92       3.13      26.11
C      16.60      11.52      26.11
C       8.09      11.52      19.87
C      10.43       3.13      19.87
C       5.77      13.20       6.53
C      12.75       1.45       6.53
C      11.95       1.45       8.80
C       6.57      13.20       8.80
C      12.75       1.45      24.13
C       5.77      13.20      24.13
C       6.57      13.20      21.85
C      11.95       1.45      21.85
C       5.98       9.87       4.91
C      12.54       4.77       4.91
C      12.16       4.78      10.42
C       6.36       9.87      10.42
C      12.54       4.77      25.75
C       5.98       9.87      25.75
C       6.36       9.87      20.23
C      12.16       4.78      20.23
C      16.16      10.81       3.43
C       2.36       3.84       3.43
C       9.99       3.84      11.90
C       8.53      10.81      11.90
C       2.36       3.84      27.23
C      16.16      10.81      27.23
C       8.53      10.81      18.76
C       9.99       3.84      18.76
C       5.77      11.79       6.51
C      12.75       2.85       6.51
C      11.95       2.86       8.82
C       6.57      11.79       8.82
C      12.75       2.85      24.14
C       5.77      11.79      24.14
C       6.57      11.79      21.84
C      11.95       2.86      21.84
C       5.55       9.18       3.78
C      12.97       5.47       3.78
C      11.73       5.47      11.55
C       6.79       9.17      11.55
C      12.97       5.47      26.87
C       5.55       9.18      26.87
C       6.79       9.17      19.11
C      11.73       5.47      19.11
C       6.17      11.11       7.66
C      12.35       3.54       7.66
C      12.35       3.54      22.99
C       6.17      11.11      22.99
O       4.72       7.92       1.43
O      13.80       6.73       1.43
O      10.90       6.73      13.89
O       7.62       7.92      13.89
O      13.80       6.73      29.22
O       4.72       7.92      29.22
O       7.62       7.92      16.76
O      10.90       6.73      16.76
O      15.16       9.14       1.41
O       3.36       5.51       1.41
O       8.98       5.51      13.92
O       9.54       9.14      13.92
O       3.36       5.51      29.25
O      15.16       9.14      29.25
O       9.54       9.14      16.74
O       8.98       5.51      16.74
O       5.97       5.24       0.00
O      12.55       9.41      30.65
O      12.14       9.41      15.33
O       6.38       5.24      15.33
