160

Eu       4.75      15.48       0.53
Eu       1.92       7.21      11.61
Eu       2.17       1.06      23.75
Eu       4.99       9.32      12.68
H       2.72       3.66      19.90
H       4.44      11.92      16.52
H       4.20      12.88       4.38
H       2.48       4.61       7.76
H       6.70       2.65      18.53
H       0.46      10.92      17.89
H       0.22      13.88       5.75
H       6.46       5.61       6.39
H       0.63       1.34      20.60
H       6.53       9.61      15.82
H       6.29      15.20       3.68
H       0.39       6.93       8.46
H       6.42       4.98      17.91
H       0.74      13.25      18.51
H       0.50      11.55       6.37
H       6.18       3.28       5.77
H       2.04       4.86      15.59
H       5.12      13.13      20.83
H       4.88      11.67       8.69
H       1.80       3.41       3.45
H       2.43       3.38      17.55
H       4.73      11.65      18.87
H       4.49      13.16       6.73
H       2.18       4.89       5.41
H       6.13      12.90      22.55
H       1.03       4.63      13.87
H       0.78       3.64       1.73
H       5.89      11.91      10.41
H       0.61      11.30      21.43
H       6.55       3.04      14.99
H       6.30       5.23       2.85
H       0.37      13.50       9.29
H       1.46      10.08      22.43
H       5.70       1.81      13.99
H       5.46       6.46       1.85
H       1.21      14.72      10.29
H       2.39      11.27      21.47
H       4.77       3.00      14.95
H       4.52       5.27       2.81
H       2.15      13.53       9.33
H       1.92      12.70       0.66
H       4.76       4.44      11.48
H       5.00       3.83      23.62
H       2.16      12.10      12.80
H       3.51      12.18      23.64
H       3.65       3.91      12.78
H       3.40       4.35       0.64
H       3.27      12.62      11.50
H       2.12      10.96       0.31
H       4.55       2.69      11.83
H       4.80       5.58      23.97
H       2.36      13.85      12.45
H       5.88       7.15      15.19
H       1.28      15.42      21.23
H       1.04       9.38       9.09
H       5.63       1.11       3.05
C       5.39       0.98      22.63
C       1.77       9.25      13.79
C       1.53      15.55       1.65
C       5.15       7.28      10.49
C       5.11       1.75      21.42
C       2.05      10.02      15.00
C       1.81      14.78       2.86
C       4.87       6.52       9.28
C       3.84       2.40      21.23
C       3.32      10.67      15.19
C       3.08      14.13       3.05
C       3.60       5.87       9.09
C       3.67       3.14      20.03
C       3.49      11.41      16.39
C       3.24      13.39       4.25
C       3.43       5.13       7.89
C       4.68       3.25      19.07
C       2.48      11.52      17.35
C       2.24      13.29       5.21
C       4.44       5.02       6.93
C       5.92       2.60      19.29
C       1.24      10.86      17.14
C       1.00      13.94       4.99
C       5.67       5.67       7.15
C       6.11       1.86      20.44
C       1.05      10.13      15.99
C       0.80      14.68       3.85
C       5.87       6.41       8.29
C       4.46       4.07      17.86
C       2.70      12.34      18.56
C       2.46      12.47       6.42
C       4.21       4.20       5.72
C       5.46       4.92      17.40
C       1.70      13.19      19.02
C       1.45      11.62       6.88
C       5.22       3.35       5.26
C       5.25       5.76      16.30
C       1.91      14.03      20.12
C       1.67      10.77       7.98
C       5.00       2.50       4.16
C       4.00       5.72      15.61
C       3.16      13.99      20.81
C       2.92      10.81       8.67
C       3.76       2.55       3.47
C       3.00       4.85      16.09
C       4.16      13.12      20.33
C       3.91      11.68       8.19
C       2.76       3.41       3.95
C       3.21       4.05      17.20
C       3.95      12.31      19.22
C       3.70      12.49       7.08
C       2.97       4.22       5.06
C       3.76       6.56      14.42
C       3.40      14.83      22.00
C       3.15       9.97       9.86
C       3.52       1.70       2.28
C       0.47      12.92      23.34
C       6.69       4.65      13.08
C       6.45       3.62       0.94
C       0.23      11.88      11.20
C       1.49      11.12      22.07
C       5.67       2.85      14.35
C       5.43       5.42       2.21
C       1.24      13.68       9.93
C       2.56      11.96      24.15
C       4.60       3.70      12.27
C       4.35       4.57       0.13
C       2.32      12.84      12.01
N       1.46      12.04      23.20
N       5.70       3.77      13.22
N       5.45       4.50       1.08
N       1.22      12.76      11.06
O       6.52       0.38      22.82
O       0.64       8.65      13.60
O       0.40      16.15       1.46
O       6.27       7.88      10.68
O       4.50       0.86      23.55
O       2.66       9.12      12.87
O       2.42      15.68       0.73
O       4.26       7.41      11.41
O       2.77       6.31      13.66
O       4.39      14.58      22.76
O       4.15      10.22      10.62
O       2.53       1.95       1.52
O       4.62       7.51      14.21
O       2.55      15.78      22.21
O       2.30       9.03      10.07
O       4.37       0.76       2.07
O       2.85       2.36      22.08
O       4.31      10.63      14.34
O       4.07      14.17       2.20
O       2.61       5.91       9.94
O       6.25       6.58      15.93
O       0.91      14.85      20.49
O       0.66       9.96       8.35
O       6.01       1.69       3.79
O       6.31      13.73       0.01
O       0.36       5.46      12.13
O       0.60       2.80      24.27
O       6.56      11.07      12.15
