84

Zn       5.79       7.93       8.04
Zn       8.74       7.92       8.00
H       5.55       6.69      15.24
H       7.80      14.33       4.65
H       8.98       9.16       0.80
H       9.49       7.39      15.27
H       5.04       8.45       0.77
H       6.90      12.18      10.14
H       7.64       3.67       5.90
H       6.78      14.31      11.38
H       7.75       1.53       4.66
H       6.73       1.51      11.39
C       7.29       5.32       8.01
C       7.24       1.00       8.02
C       7.48      14.14       6.79
C       7.05       1.70       9.25
C       6.92      14.87      10.45
C       7.61       0.98       5.59
C       6.86       0.96      10.46
C       7.67      14.88       5.58
C       2.90       8.62       7.10
C      11.63       7.23       8.94
C       2.91       7.24       8.97
C       7.24      10.52       8.03
C      11.63       8.61       7.07
C       1.50       7.37       9.14
C      13.03       8.47       6.90
C       7.26       7.80       5.45
C       7.27       8.04      10.59
C       0.79       7.92       8.03
C      13.75       7.92       8.01
C       1.50       8.48       6.93
C      13.03       7.36       9.11
C       0.75       7.03      10.32
C       7.26      12.03       8.03
C      13.78       8.82       5.72
C      13.75       7.00      10.30
C       0.78       8.85       5.74
C       6.32       7.37      15.60
C       8.21       8.47       0.44
C       7.45       6.40       0.48
C       7.09       9.45      15.56
C       7.23       7.74       4.01
C       7.30       8.11      12.03
C       6.01       8.08       0.43
C       7.27       3.82       8.01
C       8.52       7.76      15.62
C       7.21       7.69       1.38
C       7.32       8.15      14.66
C       7.21       7.72       2.79
C       7.32       8.12      13.25
C       7.48      12.72       6.82
C       7.05       3.12       9.22
C      13.08       6.75      11.54
C       1.45       9.10       4.50
C       7.71      11.99       5.62
C       7.07      12.72       9.21
C       6.83       3.86      10.42
C       7.47       3.12       6.83
C       7.09      14.13       9.24
C       7.44       1.71       6.80
C       7.29      14.85       8.02
N       3.58       7.93       8.03
N      10.95       7.92       8.01
N      12.61       6.58      12.59
N       1.92       9.26       3.45
N       7.91      11.39       4.63
N       6.63       4.46      11.41
Cl       7.72       4.80       1.10
Cl       6.81      11.04      14.94
Cl       1.53       6.81      11.83
Cl      13.00       9.04       4.21
Cl       3.78       9.69       6.13
Cl      10.76       6.15       9.91
Cl       3.80       6.13       9.89
Cl      10.73       9.71       6.15
O       6.16       5.89       8.04
O       8.38       9.95       8.00
O       8.44       5.87       7.99
O       6.10       9.98       8.05
O       6.13       7.85       6.03
O       8.41       8.00      10.01
O       8.41       7.81       5.99
O       6.12       8.03      10.05
