84

Zn       8.14       6.96       8.91
Zn       8.09       9.85       8.81
H       6.69       4.89       7.64
H       8.81      10.57      15.54
H       8.64       6.11       4.69
H       8.40      10.61      13.07
H       8.62      10.40       4.65
H       8.16       6.33      13.02
H       8.80      10.39       2.15
H       8.58       6.27      15.49
H       9.82       2.22      10.32
H       6.50      14.61       7.38
H      16.07       9.61      11.95
H       9.57      11.90      10.10
H      14.60       8.86      11.72
H       0.17       7.12       5.76
H       1.65       7.86       6.00
H      10.78       4.36      10.93
H      10.24       5.86      10.25
H       6.00      10.98       7.53
H       5.48      12.48       6.82
H       6.55       2.39       7.50
H       9.76      14.40      10.22
H       0.89       6.82      10.58
H      15.35       9.91       7.13
H       1.02      10.59       9.23
H      15.22       6.14       8.48
H       8.78       6.08       2.18
C       8.02       8.49      11.43
C       8.54       7.22      14.96
C       8.79       8.24       2.00
C       8.71       8.42      15.68
C       8.80       8.24       0.59
C       8.88       8.39      17.09
C       9.12       2.78       9.72
C       7.20      14.04       8.00
C       9.15       4.20       9.72
C       7.12      12.63       8.02
C       7.37       4.25       8.21
C       8.45       8.28       6.30
C       8.91      12.55       9.53
C       7.29       2.88       8.13
C       9.02      13.92       9.59
C      10.75       8.57       9.12
C       5.50       8.27       8.59
C       8.19       2.11       8.92
C       8.14      14.70       8.79
C       8.15       0.70       8.88
C       8.20      16.11       8.82
C       0.51       7.50       9.81
C       8.67       7.04       4.12
C      15.73       9.23       7.89
C      15.81       8.84      10.08
C       0.43       7.90       7.63
C      12.19       8.54       9.11
C       4.06       8.24       8.60
C      15.66       7.13       8.66
C       0.58       9.61       9.05
C      14.81       8.44       8.91
C       1.43       8.30       8.80
C      13.40       8.50       9.00
C       8.44       9.67      13.62
C       2.84       8.25       8.71
C       8.76       7.03       2.73
C       8.67       9.65      14.99
C       8.61       8.26       4.81
C       8.24       8.47      12.91
C       8.66       9.46       4.10
C       8.30       7.25      13.59
C       8.76       9.46       2.71
N       8.27       4.91       8.97
N       7.99      11.91       8.77
N      15.33       9.42      11.27
N       0.91       7.31       6.44
N      10.04       4.88      10.48
N       6.21      11.95       7.28
O       7.77       7.37      10.87
O       8.20       9.42       6.83
O       8.11       9.61      10.84
O       8.57       7.18       6.92
O      10.15       7.47       9.37
O       6.03       9.43       8.69
O      10.18       9.68       8.87
O       6.12       7.17       8.49
