185

Zn       1.90       3.23       8.88
Zn       4.95       7.02       9.01
Zn       2.05       6.20       7.54
Zn       4.71       4.01      10.41
H       3.14       1.37       6.55
H      13.96       2.41       7.94
H      12.32       4.69       8.36
H      13.65       6.01       6.21
H      11.71       4.97       4.41
H       2.87       9.55       3.26
H       2.51       7.67       4.69
H       3.36      10.86       1.19
H      -2.18       3.81      15.35
H      -1.28       4.47      13.13
H       1.57       4.82      17.19
H       3.75       9.18      11.13
H       2.47       5.51      14.99
H       8.06       5.70      14.89
H       3.02      -0.24       1.68
H       5.62       1.02      11.38
H       3.77       1.09       3.66
H       5.68       9.22      14.08
H      -0.88       1.52       1.96
H       6.40      10.16      16.26
H      -0.17       2.81       3.98
H       6.27       8.86       6.47
H       6.28       4.60      13.29
H       1.97      -0.11       9.35
H      -0.18       4.30      11.05
H      -0.71       7.46       6.92
H      -2.48       8.15       5.59
H      -3.29       7.06       6.76
H      -2.86       6.47       5.14
H       6.70       9.29      12.32
H       9.46      -5.03      11.54
H      10.41      -3.40      10.08
H       9.21      -2.53      11.09
H      -1.12       2.27       7.67
H       8.79      -3.04       9.44
H      -1.17      10.77       9.75
H       8.44       6.39       6.75
H       2.90      -4.85      11.05
H      -5.28      11.94      12.44
H      -3.68      11.53      13.07
H      -4.09      11.10      11.39
H       6.19      -2.34      13.23
H       8.08      -2.27      14.63
H       8.83      -3.58      13.70
H       3.52       5.53      12.96
H       7.46      -3.94      14.78
H      12.53       0.50       5.93
H       8.20       9.02       3.43
H       8.29       6.90       4.26
H       7.00       6.85       3.03
H       6.59       6.94       4.77
H       7.89      11.09       1.11
H       9.61      11.65       2.70
H       8.56      11.04       4.00
H       8.08      12.49       3.09
H      -0.01       7.75       9.49
H     -10.63       5.51      16.79
H      -4.92      15.51       1.28
H      -3.53      15.90       0.27
H      -3.77      14.22       0.83
H       7.65       1.70       8.29
H       0.63       5.62       5.00
H       1.30       6.28       2.78
H       0.77       4.57       2.67
H       2.50       4.96       2.78
H      -0.64      14.24       8.98
H       5.79      -5.75      13.61
H      13.34       2.70       3.99
C       2.87       2.39       6.28
C      -0.92       3.33       7.52
C       2.72       5.20      12.31
C       7.06       5.43       7.61
C       1.03       7.94       9.76
C       1.34       5.02      12.57
C       1.56       8.93      10.62
C      -1.71       4.27       6.82
C       6.47       6.82      13.03
C       7.51      -4.75      11.08
C       6.39      -4.56      10.01
C       7.66       4.15       7.59
C       4.32      -1.49      10.66
C       0.88      10.04      11.17
C       6.60      -4.00      12.16
C       3.35       7.91       5.33
C       5.49      -3.81      11.06
C       5.96      -5.40      12.59
C      -0.32      12.33      11.54
C       4.83      -5.18      11.51
C      -1.43      12.53      10.43
C       4.82      -2.59      10.84
C       4.56       8.55       5.03
C       0.35      11.08      11.53
C      13.12       3.14       4.96
C      12.39       2.42       6.15
C       8.94       3.85       7.09
C       4.67       0.98      10.87
C      -2.99       4.04       6.30
C      12.22       4.41       5.20
C      11.47       3.69       6.39
C      13.27       4.98       6.20
C      14.19       3.71       5.98
C       3.93      -0.15      10.47
C      12.57       4.25       7.39
C      13.45       2.98       7.17
C      10.08       3.72       6.68
C      -4.14       3.81       5.95
C       0.69       4.97      13.87
C       5.27       8.50       6.25
C       1.45       5.13      15.06
C       0.95       4.75      16.29
C      -0.34       4.20      16.39
C      -1.16       4.19      15.25
C       0.83       4.57      11.33
C      -0.65       4.56      14.01
C       4.16      10.49       1.83
C       3.90       9.73       2.96
C       5.49      10.83       1.53
C       4.93       9.21       3.78
C       6.27       9.42       3.38
C       2.81       0.40       9.82
C       6.55      10.33       2.33
C       1.86       2.06       3.94
C       0.54       2.16       3.46
C       2.95       8.67      10.61
C       0.13       1.44       2.35
C       1.02       0.56       1.70
C       2.33       0.42       2.20
C       2.74       1.16       3.30
C       8.07       7.19      16.45
C       7.67       6.68      15.20
C       7.59       8.48      16.83
C       6.73       3.36       8.30
C       6.85       7.38      14.32
C       6.39       8.67      14.71
C      -0.97       5.48       6.95
C       6.76       9.19      15.94
C       2.09       4.24       5.33
C       2.29       2.86       5.09
C      -2.53       7.12       5.96
C       9.35      -3.33      10.35
C      -4.22      11.87      12.18
C       7.87      -3.19      14.08
C       7.30       7.28       4.01
C       8.57      11.50       3.00
C      -4.28      15.12       0.48
C       6.24       5.49      12.67
C       1.51       5.25       3.13
C       6.23       7.52      11.82
N       2.99       3.40       7.18
N       5.90      11.59       0.43
N       0.54      -0.08       0.55
N       5.88       5.40       8.23
N      -5.93      17.41       0.13
N       3.32       7.53       6.62
N       4.04       2.10      10.48
N       4.52       7.90       7.20
N       2.88       1.74       9.83
N       5.67       4.10       8.68
N       2.58       4.54       6.56
N       3.20       7.63       9.79
N       1.83       4.47      10.44
N      -1.20       6.73       6.40
N       8.89      -4.65      10.79
N       3.46      -5.27      11.80
N       7.00      -2.89      12.95
N       7.37       8.75       3.97
N       7.89      10.64       2.03
N     -10.90       6.38      17.24
N       1.49       5.26       4.59
N       0.14       5.26       7.67
N       5.88       5.40      11.37
N       5.88       6.68      10.84
N       0.17       3.91       8.02
N       2.99       4.85      11.03
N       2.03       7.19       9.27
N      -0.85       3.54      17.53
O       6.33       8.84      11.53
O      -1.80      11.50       9.58
O       7.58       6.59       7.16
O      11.83       1.15       6.15
O       6.80       2.05       8.64
