116

Zn       5.92       1.09      11.68
Zn       5.75      10.90      11.60
Zn       1.20       6.17       0.06
Zn      10.47       5.82      23.21
H       3.35       1.98       8.27
H       8.32      10.01      15.00
H      10.17      10.28       6.44
H       1.50       1.71      16.83
H       1.79       0.78       4.04
H       9.88      11.21      19.23
H       1.74      10.77       5.04
H       9.94       1.22      18.23
H      10.10       2.10       5.47
H       1.58       9.89      17.81
H       0.58      10.27       7.23
H      11.09       1.72      16.04
H      11.19       1.99       7.51
H       0.48      10.00      15.76
H       8.46      10.19       8.23
H       3.21       1.80      15.04
H       1.81       2.67       2.44
H       9.86       9.33      20.83
H       9.84       9.67       2.41
H       1.83       2.32      20.86
H       1.84       9.02       3.31
H       9.83       2.98      19.97
H       2.38      10.19       8.94
H       9.30       1.80      14.34
H       9.41       1.92       9.23
H       2.26      10.07      14.04
H       1.62       2.05       6.49
H      10.05       9.94      16.79
H       9.15       4.03       4.81
H      10.04       5.26       3.87
H       9.11       4.04       3.03
H       2.53       7.96      18.46
H       2.57       7.96      20.25
H       1.63       6.73      19.40
C       7.58      12.13      13.50
C       4.09      -0.14       9.77
C      10.73       9.91       2.99
C       0.94       2.08      20.28
C       0.84      10.53       4.47
C      10.83       1.46      18.80
C       0.91       9.54       3.50
C      10.76       2.45      19.77
C      10.96       2.22       4.81
C       0.72       9.78      18.46
C      10.93       3.28       3.89
C       0.74       8.71      19.38
C       1.18      11.16       7.43
C      10.49       0.83      15.85
C       2.17      11.11       8.39
C       9.50       0.88      14.88
C      10.59       1.09       7.62
C       1.08      10.90      15.65
C       9.61       1.05       8.60
C       2.07      10.94      14.67
C      11.98       0.04       5.77
C      -0.31      11.95      17.50
C       7.79      -0.15       9.84
C       3.88      12.15      13.43
C       1.06      -0.02       6.71
C      10.61      12.01      16.56
C       3.05      -0.10       8.71
C       8.62      12.09      14.57
C      10.83      -0.02       6.80
C       0.84      12.01      16.48
C       8.87      -0.12       8.81
C       2.80      12.12      14.46
C      12.00       1.30       4.88
C      -0.33      10.69      18.39
C      12.03       3.42       3.01
C      -0.36       8.57      20.26
C      11.81      11.25       4.75
C      -0.14       0.74      18.52
C      11.91       9.20       2.77
C      -0.24       2.79      20.50
C      11.94       8.11       1.75
C      -0.27       3.88      21.52
C      -0.06       4.45       1.93
C      11.73       7.54      21.34
C       1.81       1.12       7.02
C       9.86      10.87      16.25
C       2.79       1.09       8.02
C       8.89      10.90      15.26
C       9.98      11.17       7.05
C       1.70       0.83      16.23
C       9.01      11.11       8.05
C       2.66       0.88      15.23
C       0.95       1.48       4.02
C      10.72      10.51      19.26
C       0.96       2.53       3.11
C      10.71       9.46      20.16
C      10.69      10.94       3.94
C       0.98       1.06      19.33
C       9.74       4.20       3.90
C       1.93       7.79      19.37
Br       9.03      11.89       4.01
Br       2.64       0.10      19.26
O       7.34       0.92      13.11
O       4.33      11.07      10.17
O       7.19      11.07      10.19
O       4.48       0.92      13.08
O       7.39       0.97      10.29
O       4.29      11.02      12.98
O       7.14      11.01      13.06
O       4.53       0.98      10.21
O       0.95       7.66       1.41
O      10.73       4.33      21.86
O      10.98       4.87       1.45
O       0.69       7.12      21.83
O       1.10       4.82       1.55
O      10.57       7.17      21.73
O      10.82       7.70       1.30
O       0.85       4.29      21.97
