60

Zn       9.06      10.12       5.94
Si       5.18      10.12       5.94
H       7.16       1.13       3.83
H       3.21       1.13       8.06
H       7.09       8.99       8.06
H      11.04       8.99       3.83
H       7.13       2.78       1.95
H      11.00       2.78       9.93
H       7.12       7.34       9.93
H       3.24       7.34       1.95
H       3.14       3.90       3.20
H       7.22       3.90       8.67
H      11.11       6.22       8.68
H       7.02       6.22       3.21
H       4.15       5.12       1.32
H       6.22       5.12      10.56
H      10.10       5.00      10.56
H       8.03       5.00       1.32
H       3.26       2.10       4.93
H       7.10       2.11       6.94
H      10.98       8.02       6.95
H       7.15       8.02       4.94
C       6.27       1.74       3.63
C       4.09       1.74       8.25
C       7.97       8.38       8.25
C      10.16       8.38       3.63
C       6.27       2.68       2.61
C       4.10       2.68       9.27
C       7.98       7.44       9.27
C      10.15       7.45       2.61
C       4.04       3.29       3.30
C       6.32       3.30       8.58
C      10.21       6.83       8.59
C       7.92       6.83       3.30
C       5.03       4.47       1.36
C       5.33       4.47      10.52
C       9.22       5.65      10.52
C       8.91       5.65       1.37
C       5.13       3.48       2.43
C       5.24       3.48       9.45
C       9.12       6.64       9.46
C       9.01       6.64       2.43
C       4.11       2.30       4.27
C       6.25       2.31       7.60
C      10.14       7.82       7.61
C       7.99       7.82       4.28
N       5.21       1.54       4.44
N       5.16       1.54       7.44
N       9.04       8.58       7.45
N       9.09       8.58       4.44
N       5.96       4.57       0.47
N       4.41       4.56      11.42
N       8.29       5.56      11.42
N       9.84       5.56       0.47
F       6.94      10.12       5.89
F       7.30      -0.00       5.99
F       5.18       8.42       5.95
F       9.07       1.70       5.94
F       9.12       0.00       7.64
F       5.12      10.12       4.24
