228

Cu       3.67      23.91       9.11
Cu       3.67      18.82      16.15
Cu       3.67      15.27       8.22
Cu       1.44       9.15       0.59
Cu       1.44       5.60       8.52
Cu       1.43      14.24       7.63
Cu       6.53       5.09       7.63
Cu       6.53      10.18       0.59
Cu       6.53      13.73       8.52
Cu       8.76      19.84      16.15
Cu       8.76      23.40       8.22
Cu       8.75      14.75       9.11
H       2.67      19.48       8.32
H       2.66      21.72      12.71
H       2.67      16.79      12.45
H       2.44      12.05       4.03
H       2.44       7.13       4.29
H       2.43       9.81       8.42
H       7.53       9.52       8.42
H       7.53       7.28       4.03
H       7.53      12.20       4.29
H       7.75      16.94      12.71
H       7.76      21.87      12.45
H       7.76      19.18       8.32
H      10.09      21.98       6.15
H      10.09      22.35      15.97
H      10.09      13.66      11.36
H       5.20      12.68       0.78
H       5.20       3.99       5.37
H       5.20      12.32      10.59
H       0.11       7.01      10.60
H       0.11       6.65       0.77
H       0.11      15.33       5.37
H       4.99      16.31      15.97
H       5.00      25.00      11.37
H       4.99      16.68       6.15
H       9.93      17.70       5.68
H       9.93      24.89      12.50
H       9.93      15.39      15.31
H       5.35      15.23       4.25
H       5.35       5.73       1.43
H       5.35       8.04      11.06
H       0.27      11.29      11.06
H       0.26       4.10       4.25
H       0.26      13.60       1.43
H       4.84      13.77      12.49
H       4.84      23.27      15.31
H       4.84      20.96       5.68
C       9.91      19.88       5.79
C       9.91      23.71      14.32
C       9.92      14.40      13.37
C       5.37      14.05       2.42
C       5.37       4.74       3.37
C       5.37      10.22      10.95
C       0.28       9.12      10.96
C       0.28       5.28       2.42
C       0.28      14.59       3.37
C       4.82      14.95      14.32
C       4.82      24.26      13.37
C       4.82      18.78       5.79
C       0.29      21.00       6.40
C       0.29      22.61      14.99
C       0.29      14.38      12.09
C       4.81      12.95       1.76
C       4.81       4.71       4.65
C       4.81      11.34      10.33
C       9.91       7.99      10.34
C       9.91       6.38       1.75
C       9.91      14.62       4.65
C       5.38      16.04      14.99
C       5.38      24.29      12.09
C       5.38      17.66       6.40
C       1.31      20.86       7.34
C       1.31      21.88      14.40
C       1.31      15.25      11.74
C       3.79      12.21       2.34
C       3.79       5.59       5.00
C       3.79      11.20       9.40
C       8.88       8.13       9.41
C       8.88       7.12       2.34
C       8.88      13.74       4.99
C       6.40      16.78      14.40
C       6.40      23.41      11.75
C       6.40      17.80       7.34
C       1.84      19.59       7.63
C       1.83      22.26      13.16
C       1.84      16.14      12.70
C       3.27      12.59       3.58
C       3.27       6.47       4.04
C       3.27       9.93       9.11
C       8.36       9.40       9.12
C       8.36       6.73       3.58
C       8.36      12.86       4.04
C       6.92      16.40      13.16
C       6.93      22.53      12.70
C       6.93      19.06       7.62
C       1.26      18.47       7.02
C       1.26      23.34      12.49
C       1.26      16.17      13.97
C       3.84      13.68       4.26
C       3.84       6.51       2.77
C       3.84       8.81       9.72
C       8.94      10.52       9.72
C       8.94       5.65       4.25
C       8.94      12.82       2.76
C       6.35      15.31      12.49
C       6.35      22.49      13.98
C       6.35      20.19       7.02
C       0.19      18.60       6.12
C       0.19      24.06      13.05
C       0.19      15.33      14.31
C       4.91      14.40       3.70
C       4.91       5.67       2.43
C       4.91       8.94      10.62
C      10.01      10.40      10.62
C      10.01       4.93       3.69
C      10.01      13.66       2.43
C       5.27      14.60      13.05
C       5.28      23.33      14.31
C       5.28      20.06       6.12
C       1.81      22.11       7.99
C       1.81      20.69      15.16
C       1.82      15.19      10.33
C       3.29      11.02       1.59
C       3.29       5.52       6.40
C       3.29      12.45       8.75
C       8.39       6.88       8.76
C       8.39       8.31       1.58
C       8.38      13.81       6.40
C       6.90      17.97      15.16
C       6.90      23.47      10.34
C       6.90      16.55       7.99
C       1.80      17.10       7.33
C       1.80      23.76      11.15
C       1.80      17.12      15.00
C       3.30      14.09       5.59
C       3.30       7.46       1.74
C       3.30       7.44       9.41
C       8.40      11.89       9.41
C       8.40       5.23       5.59
C       8.39      11.87       1.74
C       6.89      14.90      11.15
C       6.89      21.54      15.00
C       6.89      21.55       7.33
N       8.91      20.18       4.85
N       8.90      24.37      15.05
N       8.91      13.44      13.57
N       6.38      14.71       1.69
N       6.38       3.78       3.16
N       6.38      10.52      11.89
N       1.29       8.81      11.89
N       1.29       4.62       1.69
N       1.29      15.55       3.16
N       3.81      14.29      15.05
N       3.81      25.22      13.58
N       3.81      18.48       4.85
N       8.15      19.32       4.40
N       8.15      25.19      14.54
N       8.15      13.47      14.54
N       7.14      15.53       2.21
N       7.14       3.81       2.19
N       7.14       9.66      12.34
N       2.05       9.67      12.35
N       2.05       3.80       2.20
N       2.05      15.52       2.19
N       3.05      13.47      14.54
N       3.05      25.19      14.55
N       3.05      19.34       4.40
N       7.33      18.69       3.89
N       7.34      25.95      14.24
N       7.34      13.35      15.35
N       7.95      16.28       2.50
N       7.95       3.69       1.39
N       7.95       9.03      12.85
N       2.86      10.30      12.85
N       2.86       3.04       2.50
N       2.86      15.64       1.39
N       2.24      12.71      14.24
N       2.24      25.31      15.35
N       2.24      19.97       3.89
O       3.05      22.21       8.25
O       3.05      20.41      15.11
O       3.06      15.35      10.13
O       2.05      10.75       1.63
O       2.05       5.70       6.62
O       2.04      12.54       8.51
O       7.15       6.78       8.50
O       7.15       8.58       1.63
O       7.14      13.63       6.62
O       8.14      18.24      15.11
O       8.14      23.29      10.12
O       8.14      16.45       8.25
O       0.93      23.02       8.20
O       0.93      20.04      15.84
O       0.93      14.93       9.44
O       4.18      10.38       0.90
O       4.17       5.25       7.30
O       4.17      13.36       8.53
O       9.27       5.97       8.54
O       9.27       8.95       0.90
O       9.26      14.08       7.30
O       6.02      18.61      15.84
O       6.02      23.74       9.44
O       6.02      15.63       8.20
O       2.91      17.05       7.96
O       2.92      23.26      10.80
O       2.92      17.68      14.74
O       2.19      13.58       5.95
O       2.18       8.02       2.00
O       2.18       7.38       8.80
O       7.28      11.94       8.80
O       7.28       5.74       5.95
O       7.28      11.31       2.00
O       8.01      15.40      10.80
O       8.01      20.98      14.74
O       8.01      21.61       7.94
O       1.11      16.10       6.95
O       1.11      24.58      10.47
O       1.11      17.30      16.06
O       3.99      14.93       6.27
O       3.99       7.63       0.68
O       3.99       6.44       9.79
O       9.09      12.89       9.79
O       9.09       4.41       6.27
O       9.09      11.70       0.68
O       6.20      14.07      10.47
O       6.20      21.36      16.06
O       6.20      22.56       6.95
