356

Zn      16.06       6.11      12.90
Zn      13.79       3.84      12.90
Zn      13.79       6.11      32.79
Zn      16.06       3.84      32.79
Zn       6.11      13.79       6.99
Zn       3.84      16.06       6.99
Zn       3.84      13.79      26.88
Zn       6.11      16.06      26.88
Zn      13.79       6.11      10.64
Zn      16.06       3.84      10.64
Zn      13.79       3.84      30.52
Zn      16.06       6.11      30.52
Zn       3.84      13.79       9.25
Zn       6.11      16.06       9.25
Zn       3.84      16.06      29.14
Zn       6.11      13.79      29.14
H      13.37      10.23      10.28
H      16.48      19.62      10.28
H       9.67       3.42      30.16
H       0.28       6.53      30.16
H       3.42       9.67       9.61
H       6.53       0.28       9.61
H      19.62      16.48      29.50
H      10.23      13.37      29.50
H       6.53       9.67      29.50
H       3.42       0.28      29.50
H      10.23      16.48       9.61
H      19.62      13.37       9.61
H      16.48      10.23      30.16
H      13.37      19.62      30.16
H       0.28       3.42      10.28
H       9.67       6.53      10.28
H      13.35      12.73      10.27
H      16.49      17.12      10.27
H       7.17       3.40      30.16
H       2.78       6.54      30.16
H       3.40       7.17       9.62
H       6.54       2.78       9.62
H      17.12      16.49      29.51
H      12.73      13.35      29.51
H       6.54       7.17      29.51
H       3.40       2.78      29.51
H      12.73      16.49       9.62
H      17.12      13.35       9.62
H      16.49      12.73      30.16
H      13.35      17.12      30.16
H       2.78       3.40      10.27
H       7.17       6.54      10.27
H      16.47      12.74      13.25
H      13.37      17.11      13.25
H       7.16       6.53      33.14
H       2.79       3.42      33.14
H       6.53       7.16       6.64
H       3.42       2.79       6.64
H      17.11      13.37      26.53
H      12.74      16.47      26.53
H       3.42       7.16      26.53
H       6.53       2.79      26.53
H      12.74      13.37       6.64
H      17.11      16.47       6.64
H      13.37      12.74      33.14
H      16.47      17.11      33.14
H       2.79       6.53      13.25
H       7.16       3.42      13.25
H      16.47      10.24      13.25
H      13.38      19.61      13.25
H       9.66       6.52      33.14
H       0.29       3.43      33.14
H       6.52       9.66       6.64
H       3.43       0.29       6.64
H      19.61      13.38      26.53
H      10.24      16.47      26.53
H       3.43       9.66      26.53
H       6.52       0.29      26.53
H      10.24      13.38       6.64
H      19.61      16.47       6.64
H      13.38      10.24      33.14
H      16.47      19.61      33.14
H       0.29       6.52      13.25
H       9.66       3.43      13.25
H      16.44       6.49      17.02
H      13.41       3.46      17.02
H      13.41       6.49      36.91
H      16.44       3.46      36.91
H       6.49      13.41       2.86
H       3.46      16.44       2.86
H       3.46      13.41      22.75
H       6.49      16.44      22.75
H      16.45       6.50      19.52
H      13.40       3.45      19.52
H      13.40       6.50      39.41
H      16.45       3.45      39.41
H       6.50      13.40       0.37
H       3.45      16.45       0.37
H       3.45      13.40      20.25
H       6.50      16.45      20.25
H      16.45       6.50      23.90
H      13.40       3.45      23.90
H      13.40       6.50       4.01
H      16.45       3.45       4.01
H       6.50      13.40      35.76
H       3.45      16.45      35.76
H       3.45      13.40      15.87
H       6.50      16.45      15.87
H      16.44       6.49      26.40
H      13.40       3.46      26.40
H      13.40       6.49       6.51
H      16.44       3.46       6.51
H       6.49      13.40      33.26
H       3.46      16.44      33.26
H       3.46      13.40      13.37
H       6.49      16.44      13.37
C      14.92       8.60      11.76
C      14.92       1.35      11.76
C      11.30       4.98      31.65
C      18.55       4.97      31.65
C       4.98      11.30       8.12
C       4.97      18.55       8.12
C       1.35      14.92      28.01
C       8.60      14.92      28.01
C       4.97      11.30      28.01
C       4.98      18.55      28.01
C       8.60      14.92       8.12
C       1.35      14.92       8.12
C      14.92       8.60      31.65
C      14.92       1.35      31.65
C      18.55       4.98      11.76
C      11.30       4.97      11.76
C      14.92      10.09      11.76
C      14.93      19.76      11.76
C       9.81       4.97      31.65
C       0.14       4.98      31.65
C       4.97       9.81       8.13
C       4.98       0.14       8.13
C      19.76      14.93      28.02
C      10.09      14.92      28.02
C       4.98       9.81      28.02
C       4.97       0.14      28.02
C      10.09      14.93       8.13
C      19.76      14.92       8.13
C      14.93      10.09      31.65
C      14.92      19.76      31.65
C       0.14       4.97      11.76
C       9.81       4.98      11.76
C      14.04      10.79      10.92
C      15.80      19.06      10.92
C       9.11       4.09      30.81
C       0.84       5.86      30.81
C       4.09       9.11       8.97
C       5.86       0.84       8.97
C      19.06      15.80      28.85
C      10.79      14.04      28.85
C       5.86       9.11      28.85
C       4.09       0.84      28.85
C      10.79      15.80       8.97
C      19.06      14.04       8.97
C      15.80      10.79      30.81
C      14.04      19.06      30.81
C       0.84       4.09      10.92
C       9.11       5.86      10.92
C      14.03      12.18      10.92
C      15.81      17.67      10.92
C       7.72       4.09      30.81
C       2.23       5.86      30.81
C       4.09       7.72       8.97
C       5.86       2.23       8.97
C      17.67      15.81      28.86
C      12.18      14.03      28.86
C       5.86       7.72      28.86
C       4.09       2.23      28.86
C      12.18      15.81       8.97
C      17.67      14.03       8.97
C      15.81      12.18      30.81
C      14.03      17.67      30.81
C       2.23       4.09      10.92
C       7.72       5.86      10.92
C      14.91      12.90      11.76
C      14.93      16.95      11.76
C       7.00       4.97      31.65
C       2.95       4.98      31.65
C       4.97       7.00       8.13
C       4.98       2.95       8.13
C      16.95      14.93      28.02
C      12.90      14.91      28.02
C       4.98       7.00      28.02
C       4.97       2.95      28.02
C      12.90      14.93       8.13
C      16.95      14.91       8.13
C      14.93      12.90      31.65
C      14.91      16.95      31.65
C       2.95       4.97      11.76
C       7.00       4.98      11.76
C      15.80      12.18      12.60
C      14.05      17.66      12.60
C       7.71       5.85      32.49
C       2.24       4.10      32.49
C       5.85       7.71       7.29
C       4.10       2.23       7.29
C      17.66      14.05      27.18
C      12.18      15.80      27.18
C       4.10       7.71      27.18
C       5.85       2.23      27.18
C      12.18      14.05       7.29
C      17.66      15.80       7.29
C      14.05      12.18      32.49
C      15.80      17.66      32.49
C       2.24       5.85      12.60
C       7.71       4.10      12.60
C      15.80      10.80      12.60
C      14.05      19.05      12.60
C       9.10       5.85      32.49
C       0.85       4.10      32.49
C       5.85       9.10       7.29
C       4.10       0.85       7.29
C      19.05      14.05      27.18
C      10.80      15.80      27.18
C       4.10       9.10      27.18
C       5.85       0.85      27.18
C      10.80      14.05       7.29
C      19.05      15.80       7.29
C      14.05      10.80      32.49
C      15.80      19.05      32.49
C       0.85       5.85      12.60
C       9.10       4.10      12.60
C      14.92      14.31      11.76
C      14.93      15.53      11.76
C       5.58       4.97      31.65
C       4.36       4.98      31.65
C       4.97       5.58       8.13
C       4.98       4.36       8.13
C      15.53      14.93      28.02
C      14.31      14.92      28.02
C       4.98       5.58      28.02
C       4.97       4.36      28.02
C      14.31      14.93       8.13
C      15.53      14.92       8.13
C      14.93      14.31      31.65
C      14.92      15.53      31.65
C       4.36       4.97      11.76
C       5.58       4.98      11.76
C      14.92       4.97      15.39
C      14.92       4.97      35.27
C       4.97      14.92       4.50
C       4.97      14.92      24.39
C      14.92       4.97      16.88
C      14.92       4.97      36.76
C       4.97      14.92       3.01
C       4.97      14.92      22.90
C      15.78       5.83      17.58
C      14.07       4.12      17.58
C      14.07       5.83      37.47
C      15.78       4.12      37.47
C       5.83      14.07       2.30
C       4.12      15.78       2.30
C       4.12      14.07      22.19
C       5.83      15.78      22.19
C      15.78       5.84      18.97
C      14.06       4.11      18.97
C      14.06       5.84      38.86
C      15.78       4.11      38.86
C       5.84      14.06       0.92
C       4.11      15.78       0.92
C       4.11      14.06      20.80
C       5.84      15.78      20.80
C      14.92       4.97      19.69
C      14.92       4.97      39.58
C       4.97      14.92       0.20
C       4.97      14.92      20.09
C      14.92       4.97      21.10
C      14.92       4.97       1.21
C       4.97      14.92      38.56
C       4.97      14.92      18.67
C      14.92       4.97      22.32
C      14.92       4.97       2.44
C       4.97      14.92      37.34
C       4.97      14.92      17.45
C      14.92       4.97      23.74
C      14.92       4.97       3.85
C       4.97      14.92      35.93
C       4.97      14.92      16.04
C      15.78       5.84      24.45
C      14.06       4.11      24.45
C      14.06       5.84       4.57
C      15.78       4.11       4.57
C       5.84      14.06      35.21
C       4.11      15.78      35.21
C       4.11      14.06      15.32
C       5.84      15.78      15.32
C      15.78       5.83      25.84
C      14.07       4.12      25.84
C      14.07       5.83       5.95
C      15.78       4.12       5.95
C       5.83      14.07      33.82
C       4.12      15.78      33.82
C       4.12      14.07      13.93
C       5.83      15.78      13.93
C      14.92       4.97      26.55
C      14.92       4.97       6.66
C       4.97      14.92      33.12
C       4.97      14.92      13.23
C      14.92       4.97      28.04
C      14.92       4.97       8.15
C       4.97      14.92      31.63
C       4.97      14.92      11.74
O      14.92       4.97      11.77
O      14.92       4.97      31.66
O       4.97      14.92       8.12
O       4.97      14.92      28.00
O      14.12       8.02      10.96
O      15.73       1.93      10.96
O      11.88       4.17      30.85
O      17.96       5.78      30.85
O       4.17      11.88       8.93
O       5.78      17.96       8.93
O       1.93      15.73      28.82
O       8.02      14.12      28.82
O       5.78      11.88      28.82
O       4.17      17.96      28.82
O       8.02      15.73       8.93
O       1.93      14.12       8.93
O      15.73       8.02      30.85
O      14.12       1.93      30.85
O      17.96       4.17      10.96
O      11.88       5.78      10.96
O      15.73       8.02      12.57
O      14.11       1.93      12.57
O      11.88       5.78      32.46
O      17.97       4.17      32.46
O       5.78      11.88       7.32
O       4.17      17.97       7.32
O       1.93      14.11      27.21
O       8.02      15.73      27.21
O       4.17      11.88      27.21
O       5.78      17.97      27.21
O       8.02      14.11       7.32
O       1.93      15.73       7.32
O      14.11       8.02      32.46
O      15.73       1.93      32.46
O      17.97       5.78      12.57
O      11.88       4.17      12.57
O      15.73       5.78      14.81
O      14.12       4.17      14.81
O      14.12       5.78      34.70
O      15.73       4.17      34.70
O       5.78      14.12       5.08
O       4.17      15.73       5.08
O       4.17      14.12      24.97
O       5.78      15.73      24.97
O      15.73       5.78      28.62
O      14.12       4.17      28.62
O      14.12       5.78       8.73
O      15.73       4.17       8.73
O       5.78      14.12      31.05
O       4.17      15.73      31.05
O       4.17      14.12      11.16
O       5.78      15.73      11.16
