56

Al       9.88       6.11       8.69
Al       6.54       6.12       8.73
H       4.91       4.59       7.88
H       8.24       7.08      10.21
H       9.53       6.25      12.68
H       9.38       6.16      15.17
H       6.79       4.70      15.31
H       6.09       5.53       2.18
H       3.44       7.05       4.69
H       3.54       6.89       2.20
H       3.56       1.76       9.44
H       7.28       4.81      11.74
H       7.99       4.44      13.30
H       5.59       5.90       5.75
H       4.91       5.41       4.22
H       8.46      10.98       7.83
H       9.07       9.37       7.95
C       8.26       3.69       8.64
C       8.11       6.39       6.32
C       4.84       8.52       8.79
C       4.92       5.73      11.12
C       4.90       5.54      12.58
C      10.37       5.89      13.27
C      10.28       5.84      14.65
C       4.76       5.43      15.40
C       5.92       5.03      14.73
C       6.03       5.07      13.32
C       4.72       5.47      16.82
C       8.19       6.03       0.63
C       8.14       6.16       2.04
C       6.97       5.87       2.74
C       6.88       5.98       4.14
C       8.06       6.38       4.85
C       2.58       6.70       4.12
C       2.64       6.61       2.75
C      10.44      10.79       8.37
C       2.60       1.38       9.10
C       4.85       9.96       8.79
C       8.22       2.22       8.69
C       2.21       0.03       9.01
C       7.55      -0.14       8.52
S       6.26      10.83       9.33
S       6.79       1.37       8.20
N       7.17       4.64      12.73
N       5.72       5.65       4.77
N       9.26      10.36       7.85
O       9.40       4.24       8.81
O       7.02       6.58       6.95
O       5.93       7.90       9.07
O       3.84       6.06      10.53
O       3.73       7.93       8.51
O       6.05       5.58      10.51
O       7.15       4.29       8.42
O       9.24       6.18       6.88
O       4.89       5.54       8.05
O       8.22       6.61       9.36
