85

Al       1.11      29.40      10.23
H       3.28      31.43      13.90
H       2.36       9.93      15.23
H       3.21      14.05      17.27
H       1.99       3.76       6.42
H       2.21       3.87       3.97
H       1.21       4.24       2.26
H       1.21      15.88      20.28
H       2.14      15.54      18.33
H       2.50       8.02       6.64
H       2.45       8.18       4.21
H       3.33      19.62      20.04
H       3.06      27.17      13.96
H       3.14      24.99      15.10
H       1.84      23.43      15.59
H       1.53      21.42      16.92
H       2.40      19.83      18.22
H       3.11      25.18      10.15
H       2.96      23.01      11.26
H       3.63      19.17      13.91
H       2.11      10.22      10.29
H       2.34      12.28      11.61
H       1.31      13.61      12.75
H       1.24      15.78      13.85
H       2.37      17.59      14.56
C       2.22       7.64      11.24
C       3.10      27.62      11.26
C       2.22       5.85       8.18
C       2.36       8.86      13.40
C       2.38      10.02      14.15
C       2.85      12.76      15.62
C       2.78      13.99      16.27
C       2.12       4.72       5.92
C       2.22       4.80       4.54
C       1.71       5.01       1.68
C       1.64       4.94       0.30
C       2.25       8.92      12.01
C       2.37      11.29      13.54
C       2.38      12.56      14.31
C       2.24      15.12      15.66
C       2.24      16.42      16.36
C       2.20      16.47      17.76
C       2.41       7.12       6.04
C       2.42       7.19       4.66
C       2.85       7.08       1.54
C       2.77       7.03       0.15
C       3.07      26.26      13.37
C       3.10      25.02      14.01
C       2.28      22.51      15.24
C       2.10      21.35      15.99
C       2.24       5.89       6.69
C       2.35       6.03       3.87
C       2.35       6.06       2.38
C       2.29      17.72      19.93
C       2.26      17.69      18.45
C       2.35      18.88      17.71
C       3.10      25.13      11.23
C       3.05      23.90      11.87
C       3.42      21.25      13.57
C       3.22      20.09      14.31
C       2.20      10.16      11.38
C       2.30      11.33      12.13
C       1.79      13.71      13.73
C       1.73      14.95      14.36
C       3.09      26.32      11.98
C       3.07      23.81      13.28
C       2.97      22.53      14.00
C       2.57      20.11      15.54
C       2.39      18.86      16.31
C       2.33      17.62      15.65
N       4.16      21.02      12.31
N       3.48      11.72      16.45
N       3.53       8.31       2.02
O       1.28       5.21       8.75
O       1.28       7.46      10.40
O       2.17      28.45      11.52
O       3.15       6.49       8.77
O       4.04      27.81      10.41
O       3.15       6.81      11.50
O       0.97      21.88      11.94
O       3.95      19.95      11.72
O       0.36      11.01      15.93
O       3.13      11.65      17.64
O       0.39       8.20       2.91
O       3.22       9.37       1.46
