162

Zn       1.65       3.64       9.11
Zn       4.21       6.93       9.59
Zn       1.63       6.35       7.21
Zn       4.27       4.34      11.03
H       2.19       1.42       6.88
H       1.83      11.55      11.55
H       8.56      -4.23      12.73
H       6.34       6.36       7.07
H       7.41      -2.07      13.08
H       2.25      -1.91      10.11
H      -4.71      13.68       9.37
H      -3.57      11.52       9.02
H      -3.77       5.36       5.33
H      -3.66       2.49       8.54
H      12.96       1.30       9.22
H       3.19       9.93      10.49
H      10.48       1.22       9.27
H       8.37       2.35       8.74
H       1.42       8.55       4.43
H       8.17       5.28       5.58
H      10.25       5.82       4.26
H      12.71       5.86       4.19
H       1.98      10.06       2.71
H       2.65      11.57       0.85
H      -2.66       6.02      15.22
H      -1.64       6.17      12.95
H      -1.60       6.23       6.26
H       5.93      10.40       4.40
H       1.21       6.44      17.01
H       4.76       1.56      12.47
H       2.25       6.59      14.78
H       5.37       6.24      16.03
H      -0.03      -0.70       3.13
H       0.88       0.48       5.12
H       5.59      10.03      13.98
H       1.11       2.60       0.64
H       5.64      11.18      16.18
H       5.57       5.12      14.01
H       2.07       3.78       2.61
H       5.52       8.75       5.82
H       1.75       0.37       9.61
H       6.17       2.51       9.07
H       2.27       5.08       4.57
H      -0.39       4.94      11.10
H       5.60      -0.51      12.45
H       7.03      12.58       1.68
H       8.84      12.23       3.09
H       8.15      10.59       3.26
H       5.39       8.95      11.99
H       7.75      11.86       4.44
H      11.05      13.15       0.27
H       9.97      15.27       1.85
H      11.65      14.99       2.34
H      10.48      13.64       2.37
H      -1.48       2.62       8.65
H       3.14       6.88      12.68
H      -0.36       8.23       8.70
H      -1.49      10.17       9.17
C       2.24       2.44       6.50
C      -1.30       3.56       8.12
C       2.40       6.33      12.11
C       6.13       5.49       7.69
C       0.63       8.48       9.06
C       1.05       6.10      12.41
C       1.06       9.58       9.83
C      -2.15       4.29       7.27
C       5.53       7.34      13.57
C      -1.04      10.92       9.82
C       0.28      10.72      10.29
C       6.78       4.24       7.75
C       0.83      11.69      11.14
C       0.14      12.87      11.46
C      -1.16      13.09      10.92
C       2.38       8.44       4.93
C      -1.77      12.07      10.12
C       7.58      -4.04      12.28
C       6.95      -2.85      12.48
C       5.68      -2.58      11.87
C       5.04      -3.62      11.12
C       3.77      -3.37      10.52
C       3.60       9.11       4.68
C      -3.72      13.50       9.79
C      -3.09      12.31       9.60
C       5.08      -1.31      11.92
C       3.87      -1.04      11.26
C       3.96       1.48      11.74
C       3.20      -2.09      10.61
C      -4.28       4.66       5.99
C      -3.55       3.99       6.98
C      -4.21       3.04       7.78
C      13.06       2.83       7.68
C       3.40       0.34      11.14
C      12.31       3.61       6.75
C      12.99       4.50       5.86
C      12.37       1.92       8.55
C      11.01       1.88       8.57
C      10.22       2.75       7.74
C       4.47       8.54       5.65
C      10.89       3.57       6.79
C      10.12       4.44       5.95
C      10.83       5.21       4.96
C      12.20       5.24       4.92
C       0.59       5.36      11.29
C       8.85       2.91       7.93
C       8.11       3.87       7.22
C       8.74       4.57       6.18
C       0.39       6.33      13.69
C       1.16       6.48      14.86
C       0.59       6.39      16.12
C       2.43       0.88      10.28
C      -0.79       6.15      16.26
C      -1.59       6.15      15.10
C      -1.01       6.23      13.84
C       2.44       9.35       9.97
C       3.35      11.32       1.65
C       2.98      10.48       2.68
C       4.66      11.84       1.56
C       3.93      10.10       3.67
C       5.21      10.67       3.63
C       5.60      11.54       2.61
C       1.58       2.20       4.01
C       6.05       3.53       8.71
C       1.61       2.80       2.74
C       1.08       2.15       1.63
C      -1.35       5.39       6.90
C       0.51       0.87       1.75
C       0.44       0.27       3.03
C       0.97       0.93       4.13
C       5.41       7.97      17.31
C       5.44       7.33      16.05
C       5.56       9.40      17.34
C       5.53       8.03      14.85
C       5.56       9.45      14.90
C       2.30       4.30       5.32
C       5.57      10.10      16.11
C       5.51       5.96      13.31
C       2.06       2.92       5.19
C       7.94      11.67       3.37
C      10.79      14.54       1.83
C       5.41       7.90      12.28
N       2.52       3.46       7.34
N       5.19      12.48       0.46
N       0.12       0.27       0.55
N       5.13       5.52       8.58
N      11.61      16.97       0.62
N       2.55       7.57       5.94
N       3.38       2.60      11.26
N       3.85       7.63       6.40
N       2.42       2.23      10.34
N       5.07       4.31       9.21
N       2.55       4.62       6.60
N       2.79       8.22       9.32
N       1.59       5.15      10.43
N       6.84      12.11       2.56
N      11.11      14.14       0.47
N      -0.14       5.32       7.50
N       5.36       5.72      11.99
N       5.30       6.94      11.35
N      -0.12       4.17       8.25
N       2.73       5.74      10.92
N       1.67       7.68       8.76
N      -1.43       5.77      17.44
