238

Ni      -2.85       6.84       0.00
Ni       5.19      -3.32       7.33
Ni      12.60      -3.32       7.33
Ni      -5.71      13.67       0.00
Mo       8.89      -3.25      10.99
Mo      -4.21      10.27       3.66
H      -4.50      -0.28      13.25
H      -3.46       0.74      14.25
H      -0.63       4.62       0.18
H       0.58       5.29       1.31
H      11.78       3.94       2.73
H      12.14       3.86       0.98
H      -5.29       2.50      14.29
H      -4.63       2.19      12.65
H       4.49      11.18       5.49
H       5.24      10.99       3.89
H       4.35       8.92       6.13
H       4.88       8.39       4.51
H       6.22       6.46       7.88
H       5.13       7.86       8.05
H      11.61      -0.48       4.88
H      13.03      -1.55       4.75
H      -1.94       5.49       4.04
H      -0.92       6.69       3.27
H      -0.05       4.00       4.45
H       1.03       5.01       3.44
H       7.30       6.02       5.96
H       7.85       7.60       5.37
H       5.80       5.82       3.95
H       6.51       7.34       3.32
H      -0.68       7.34       1.28
H       8.31       0.79      12.24
H       6.87       9.64       4.82
H      11.48      -1.06       7.19
H       1.12       5.45       5.79
H       8.62       6.16       3.74
H       0.99       7.97       8.74
H       0.45       6.61       7.74
H       2.38       9.15       7.15
H       2.23       7.78       6.02
H       7.79      -2.04       4.60
H       8.01      -2.35       6.35
H      -1.88       7.62       7.70
H      -1.34       7.14       9.34
H      -1.69       1.90       1.84
H      -1.23       1.27       3.44
H       0.34       2.90       1.20
H       1.03       2.61       2.82
H      -1.10      -4.53      14.11
H      -2.81      -4.06      13.94
H      11.81      -0.18       2.45
H      13.34      -1.08       2.58
H       1.08      10.03       3.29
H       0.37       8.62       4.06
H       3.18       8.85       2.88
H       2.67       7.47       3.89
H       4.16       1.29       1.37
H       2.91       0.17       1.96
H       3.76       2.75       3.38
H       2.63       1.51       4.01
H      -0.14       8.15       6.05
H       4.94      -4.27       9.75
H       0.65       0.29       2.51
H      12.29       0.16       0.14
H       2.30       7.22       1.54
H       4.53       0.02       3.59
H       9.18       7.31       1.41
H       8.14       6.29       0.41
H       5.31       2.41      14.48
H       4.10       1.74      13.35
H      -7.10       3.08      11.93
H      -7.47       3.16      13.68
H       9.97       4.52       0.37
H       9.31       4.84       2.01
H       0.19      -4.15       9.17
H      -0.56      -3.97      10.77
H       0.33      -1.89       8.53
H      -0.21      -1.36      10.15
H      -1.55       0.56       6.78
H      -0.45      -0.83       6.61
H      -6.93       7.51       9.78
H      -8.35       8.58       9.91
H       6.62       1.54      10.62
H       5.59       0.34      11.39
H       4.73       3.03      10.21
H       3.65       2.02      11.22
H      -2.63       1.01       8.70
H      -3.17      -0.57       9.29
H      -1.13       1.21      10.71
H      -1.83      -0.32      11.34
H       5.36      -0.31      13.38
H      -3.63       6.24       2.42
H      -2.19      -2.61       9.84
H      -6.80       8.09       7.47
H       3.56       1.58       8.87
H      -3.95       0.87      10.92
H       3.68      -0.94       5.92
H       4.23       0.42       6.92
H       2.29      -2.12       7.51
H       2.44      -0.75       8.64
H      -3.12       9.07      10.06
H      -3.33       9.38       8.31
H       6.56      -0.60       6.96
H       6.02      -0.11       5.32
H       6.37       5.13      12.82
H       5.91       5.75      11.22
H       4.34       4.13      13.46
H       3.64       4.42      11.84
H       5.78      11.56       0.55
H       7.48      11.09       0.72
H      -7.14       7.21      12.21
H      -8.66       8.11      12.08
H       3.60      -3.00      11.37
H       4.31      -1.59      10.60
H       1.49      -1.83      11.78
H       2.01      -0.44      10.77
H       0.52       5.74      13.29
H       1.77       6.85      12.70
H       0.92       4.28      11.28
H       2.05       5.52      10.65
H       4.82      -1.12       8.61
H      -0.26      11.30       4.91
H       4.03       6.73      12.15
H      -7.62       6.87      14.52
H       2.38      -0.19      13.12
H       0.14       7.01      11.07
C       8.04      -2.06      12.54
C       9.11      -1.15      10.57
C      10.06      -3.21       9.19
C       3.57       8.42      10.34
C      -4.51       0.51      14.01
C      -0.49       5.32       1.02
C      -2.65       4.51       1.87
C      -5.21       1.75      13.48
C       5.45      11.06       4.97
C       5.22       8.64       5.53
C       6.03       7.50       7.54
C      12.07      -1.42       5.26
C      -1.06       5.60       3.40
C       0.16       5.03       4.12
C       6.98       6.91       5.40
C       6.69       6.47       3.97
C       7.47      -2.93       9.45
C       7.04      -4.26      11.42
C       9.30      -4.34      12.80
C      -3.93      -2.84      11.65
C       0.26       7.67       7.98
C       1.80       8.75       6.31
C       1.70      11.06       5.46
C      -1.16       7.84       8.51
C      -1.21       1.06       2.36
C       0.93       2.20       1.80
C      -2.13      -4.75      14.45
C      12.85      -0.24       2.07
C       1.32       9.17       3.93
C       2.31       8.26       3.21
C       3.21       1.24       1.93
C       3.50       1.68       3.36
C      -3.37       9.09       2.12
C      -4.43       8.18       4.09
C      -5.38      10.23       5.47
C       1.11      -1.40       4.32
C       9.19       6.52       0.65
C       5.16       1.71      13.64
C       7.33       2.51      12.79
C       9.89       5.27       1.18
C      -0.77      -4.04       9.69
C      -0.55      -1.62       9.13
C      -1.35      -0.47       7.12
C      -7.39       8.44       9.40
C       5.73       1.43      11.26
C       4.52       2.00      10.54
C      -2.30       0.12       9.26
C      -2.02       0.56      10.69
C      -2.79       9.95       5.21
C      -2.36      11.29       3.24
C      -4.62      11.37       1.86
C       8.61       9.87       3.01
C       4.42      -0.64       6.68
C       2.88      -1.72       8.35
C       2.97      -4.03       9.20
C       5.84      -0.81       6.15
C       5.89       5.97      12.30
C       3.75       4.83      12.86
C       6.80      11.78       0.21
C      -8.17       7.27      12.59
C       3.36      -2.14      10.73
C       2.36      -1.24      11.45
C       1.47       5.79      12.73
C       1.17       5.35      11.30
N       7.65      -1.41      13.43
N       9.24       0.01      10.42
N      10.73      -3.22       8.23
N       3.79       7.30      10.05
N      -0.84       6.67       0.52
N      -1.29       4.89       2.14
N      -6.58       1.37      13.08
N       6.10       9.84       5.47
N       5.84       7.48       6.11
N      -2.48      -1.36       6.70
N       6.71      -2.81       8.56
N       6.02      -4.83      11.57
N       9.58      -4.96      13.76
N      -2.81      -2.61      11.94
N       0.42       8.55       6.81
N       1.88       9.65       5.19
N      -1.34       9.25       8.91
N       0.17       0.92       1.86
N       2.25       2.08       1.22
N       7.19      13.16       0.63
N      -2.97       8.43       1.23
N      -4.57       7.02       4.24
N      -6.06      10.25       6.43
N       0.89      -0.28       4.61
N       5.51       0.36      14.14
N       5.97       2.13      12.52
N      11.26       5.65       1.58
N      -1.42      -2.81       9.19
N      -1.16      -0.45       8.55
N       7.16       8.38       7.96
N      -2.04       9.84       6.10
N      -1.35      11.86       3.09
N      -4.90      11.99       0.90
N       7.49       9.64       2.72
N       4.26      -1.52       7.85
N       2.80      -2.63       9.47
N       6.02      -2.22       5.75
N       4.51       6.10      12.80
N       2.43       4.95      13.44
N      -2.51      -6.14      14.03
O       0.43       5.88       5.25
O       7.79       5.70       3.48
O       1.64       7.68       2.08
O       4.64       0.96       3.85
O       4.24       1.15       9.41
O      -3.11       1.33      11.18
O       3.04      -0.66      12.58
O       0.04       6.06      10.81
