162

Mg       1.49      19.70      11.81
Mg      -0.78      21.43      11.16
Mg       3.76      21.14      12.98
Mg       0.14       1.05      24.12
Mg       2.41      -0.65      24.80
Mg      -2.13      -0.40      22.99
H       2.27      21.33       0.65
H       0.00      30.29      18.15
H       4.54      10.65      17.16
H       0.89      21.00       1.56
H      -1.38      29.67      17.40
H       3.16      11.61      16.99
H       0.09       0.60      34.24
H       2.36      -9.19      19.35
H      -2.18       8.60      18.32
H       3.42      -0.75      32.09
H      -1.12      -6.66      19.26
H       1.15       7.41      20.55
H       2.15      -0.84      34.22
H       4.42      -8.46      18.11
H      -0.12       9.30      19.57
H      -0.92      22.40       1.56
H      -3.19      28.96      18.62
H       1.35      10.91      15.77
H       4.47      22.25       3.60
H       2.20      27.27      17.47
H      -0.07      12.75      14.88
H       2.83      18.53       2.19
H       0.56      30.35      14.95
H      -1.71      13.39      18.80
H       4.30      18.63       0.19
H       2.03      32.04      16.04
H      -0.24      11.60      19.72
H       0.51      20.12       5.56
H      -1.76      26.64      14.64
H       2.78      15.51      15.75
H      -0.57      19.98       7.80
H       3.97      24.77      13.40
H       1.70      17.52      14.74
H       4.17      21.39       7.43
H       1.90      24.39      14.81
H      -0.37      16.50      13.71
H       1.29       0.44      30.37
H       3.55      -5.76      21.15
H      -0.98       5.33      20.39
H       2.28       0.68      28.09
H       4.55      -3.91      22.50
H       0.01       3.23      21.31
H      -2.49      -0.56      28.59
H      -0.22      -3.72      21.17
H       2.05       4.28      22.15
C      -1.66       0.24      35.47
C       0.61     -10.09      18.42
C       2.88       9.84      18.01
C      -0.96       0.28      34.26
C       1.31      -9.05      19.07
C       3.58       8.77      18.58
C      -1.57      -0.06      33.05
C       0.70      -7.83      19.37
C       2.97       7.90      19.48
C      -2.92      -0.49      33.03
C      -0.65      -7.61      19.01
C       1.62       8.09      19.86
C       3.20      -0.54      34.23
C       5.47      -8.62      18.37
C       0.93       9.16      19.30
C      -3.03      -0.17      35.46
C      -0.76      -9.87      18.07
C       1.51      10.04      18.37
C       5.23      20.51       0.73
C       2.96      30.62      17.40
C       0.69      11.14      17.82
C       5.25      21.53       1.72
C       2.99      29.26      17.79
C       0.72      11.48      16.45
C       4.46      21.46       2.85
C       2.19      28.32      17.16
C      -0.08      12.50      15.94
C       3.59      20.37       3.03
C       1.32      28.71      16.12
C      -0.95      13.20      16.80
C       3.52      19.37       2.05
C       1.25      30.06      15.75
C      -1.02      12.84      18.15
C       4.34      19.44       0.93
C       2.07      31.00      16.37
C      -0.20      11.84      18.66
C       2.43      20.74       6.36
C       0.17      25.64      14.78
C      -2.10      15.89      14.81
C       1.08      20.35       6.46
C      -1.19      25.74      14.39
C       3.35      16.18      15.10
C       0.48      20.27       7.71
C      -1.79      24.70      13.70
C       2.75      17.30      14.54
C       1.19      20.53       8.91
C      -1.08      23.54      13.32
C       3.46      18.21      13.72
C       2.56      20.94       8.79
C       0.29      23.44      13.74
C      -1.98      17.90      13.43
C       3.13      21.06       7.52
C       0.86      24.47      14.48
C      -1.40      16.74      13.95
C       3.44      21.20       9.94
C       1.17      22.31      13.39
C      -1.10      18.77      12.63
C      -0.69      -0.07      29.62
C       1.58      -4.86      21.09
C       3.85       4.93      21.20
C       0.68       0.28      29.48
C       2.95      -4.91      21.45
C      -1.59       4.63      20.97
C       1.23       0.41      28.22
C       3.50      -3.89      22.20
C      -1.04       3.47      21.48
C       0.46       0.24      27.03
C       2.73      -2.78      22.64
C      -1.81       2.54      22.23
C      -0.91      -0.13      27.18
C       1.35      -2.72      22.25
C       3.62       2.85      22.48
C      -1.45      -0.28      28.47
C       0.82      -3.76      21.47
C       3.09       4.04      21.96
C      -1.82      -0.36      26.05
C       0.45      -1.62      22.62
C       2.72       1.98      23.24
N       1.26      21.37       0.69
N      -1.01      30.24      18.16
N       3.53      10.67      17.10
N       2.75      20.22       4.17
N       0.49      27.80      15.42
N      -1.78      14.26      16.36
N       3.20      20.83       5.19
N       0.93      26.61      15.44
N      -1.34      14.84      15.32
N      -0.76       0.05      31.89
N       1.51      -6.89      20.05
N       3.77       6.83      19.96
N      -1.40      -0.19      30.82
N       0.87      -5.84      20.38
N       3.14       6.03      20.71
O       4.61      21.67       9.77
O       2.34      22.22      13.88
O       0.07      18.39      12.30
O       3.01      20.89      11.12
O       0.74      21.44      12.53
O      -1.53      19.94      12.30
O       0.58      20.37      10.09
O      -1.69      22.59      12.60
O       2.85      19.31      13.27
O       3.81      -0.82      26.23
O      -0.72      -1.55      22.13
O       1.54       2.37      23.55
O      -1.40      -0.07      24.86
O       0.87      -0.74      23.47
O       3.13       0.80      23.58
O       1.05       0.43      25.85
O       3.32      -1.84      23.40
O      -1.22       1.41      22.66
