68

Al       3.91      12.85       7.42
Al       0.07       4.28       2.47
H       1.97       5.15       5.89
H       1.96       5.16       8.35
H       2.00       9.46       8.38
H       2.01       7.32       9.60
H       2.04      10.71       3.74
H       1.93       8.54       2.49
H       1.97       0.90       1.51
H       1.96      15.89       0.29
H       2.00      13.71       4.01
H       2.01      13.72       1.54
H       2.04      -0.02       7.40
H       1.93       2.14       6.15
H       1.97       6.81       0.02
H       1.96       0.37      13.61
H       2.00      -1.76       9.87
H       2.01       0.37      11.11
H       2.04      -6.40      11.11
H       1.93      -6.40      13.61
C       1.94      -4.32       9.47
C       1.94      11.09       6.36
C       1.94      -2.49       6.42
C       2.03       6.08       3.47
C       2.03       2.52       3.53
C       2.03       4.25       0.42
C       1.98       7.34       4.26
C       2.00       7.31       5.69
C       1.96       8.55       3.58
C       1.98       6.09       6.42
C       1.98       6.10       7.80
C       2.00       9.77       5.66
C       2.01       9.76       4.28
C       1.98       8.55       6.41
C       1.99       8.52       7.83
C       2.00       7.33       8.51
C       1.98       1.20       4.23
C       2.00      -0.02       3.48
C       1.96       1.19       5.61
C       1.98      -0.04       2.06
C       1.98      15.89       1.38
C       2.00      -1.23       5.63
C       2.01      -0.02       6.31
C       1.98      -1.26       4.20
C       1.99      14.66       3.47
C       2.00      14.67       2.09
C       1.98      -4.26      13.77
C       2.00      -3.01      13.08
C       1.96      -5.46      13.07
C       1.98      -1.77      13.77
C       1.98      -0.58      13.07
C       2.00      -4.26      10.96
C       2.01      -5.46      11.66
C       1.98      -3.01      11.65
C       1.99      -1.77      10.96
C       2.00      -0.58      11.66
O       0.98      -3.28       6.18
O       0.98      -3.71       8.91
O       0.98      11.27       7.17
O       2.84      -2.69       7.30
O       2.84      11.95       6.09
O       2.84      -4.98       8.86
O       1.13       3.58       1.03
O       1.13       5.88       2.59
O       1.13       3.38       3.80
O       3.00       4.86       0.98
O       3.00       2.71       2.72
O       3.00       5.28       3.72
