472

Zn      11.34      11.05       6.13
Zn      12.08       8.71      16.84
Zn       1.64       1.94      32.99
Zn       0.90       4.28      43.70
Zn       4.55       8.13      46.43
Zn       2.22       7.40       3.41
Zn       8.43       4.85      19.56
Zn      10.77       5.59      30.27
Zn       4.85       8.43      34.16
Zn       5.59      10.77      23.45
Zn       8.13       4.55       7.30
Zn       7.40       2.22      50.32
Zn      11.05      11.34      47.59
Zn       8.71      12.08      36.89
Zn       1.94       1.64      20.73
Zn       4.28       0.90      10.02
B       6.05       9.68       6.85
B       6.93       3.30      33.71
B       3.19       0.44      47.14
B       9.79      12.54      20.28
B      12.54       9.79      33.44
B       0.44       3.19       6.58
B       9.68       6.05      46.87
B       3.30       6.93      20.01
H       6.08      12.39       7.88
H       3.77       8.90       8.48
H       2.82      10.96      10.12
H       8.94       9.42       7.21
H       8.88       0.09       5.10
H       6.28      12.19       5.38
H       6.71       6.99       5.93
H       6.82       9.12       9.59
H       7.91       6.59       9.94
H       0.62       8.90       5.96
H      12.77       8.48       1.85
H      10.88      10.17       3.01
H       3.28       8.92       6.15
H       5.19       7.98       2.52
H       7.03       9.22       4.21
H      10.58       8.11      10.32
H      10.98       7.99      12.80
H       0.79      11.26      12.48
H       0.37      11.38      10.03
H       6.90       0.59      34.74
H       9.21       4.08      35.35
H      10.16       2.03      36.98
H       4.05       3.57      34.07
H       4.10      12.89      31.96
H       6.70       0.79      32.25
H       6.27       5.99      32.79
H       6.16       3.86      36.46
H       5.07       6.39      36.81
H      12.36       4.08      32.82
H       0.21       4.51      28.71
H       2.10       2.81      29.87
H       9.70       4.06      33.02
H       7.79       5.00      29.38
H       5.96       3.76      31.07
H       2.41       4.87      37.18
H       2.00       4.99      39.66
H      12.19       1.73      39.34
H      12.62       1.60      36.89
H       5.90       0.41      48.17
H       2.41       2.72      48.78
H       4.46       3.67      50.41
H       2.92      10.54      47.50
H       6.58      10.59      45.40
H       5.70       0.21      45.67
H       0.50      12.76      46.22
H       2.63      12.65      49.89
H       0.10      11.56      50.24
H       2.41       5.87      46.25
H       1.99       6.70      42.14
H       3.68       8.59      43.31
H       2.43       3.21      46.45
H       1.49       1.30      42.81
H       2.73      12.45      44.50
H       1.62       8.90      50.61
H       1.50       8.49      53.09
H       4.76       5.70      52.77
H       4.89       6.13      50.32
H       7.08      12.57      21.31
H      10.57      10.26      21.91
H       8.52       9.31      23.55
H      10.06       2.44      20.64
H       6.40       2.39      18.53
H       7.29      12.78      18.81
H      12.48       0.22      19.36
H      10.35       0.33      23.02
H      12.88       1.42      23.37
H      10.57       7.11      19.39
H      11.00       6.28      15.28
H       9.30       4.39      16.44
H      10.55       9.77      19.58
H      11.50      11.68      15.95
H      10.25       0.53      17.64
H      11.36       4.09      23.75
H      11.48       4.49      26.23
H       8.22       7.28      25.91
H       8.10       6.86      23.46
H      12.57       7.08      32.41
H      10.26      10.57      31.81
H       9.31       8.52      30.18
H       2.44      10.06      33.09
H       2.39       6.40      35.19
H      12.78       7.29      34.91
H       0.22      12.48      34.37
H       0.33      10.35      30.70
H       1.42      12.88      30.35
H       7.11      10.57      34.33
H       6.28      11.00      38.44
H       4.39       9.30      37.28
H       9.77      10.55      34.14
H      11.68      11.50      37.78
H       0.53      10.25      36.08
H       4.09      11.36      29.98
H       4.49      11.48      27.50
H       7.28       8.22      27.82
H       6.86       8.10      30.26
H       0.41       5.90       5.55
H       2.72       2.41       4.95
H       3.67       4.46       3.32
H      10.54       2.92       6.22
H      10.59       6.58       8.33
H       0.21       5.70       8.05
H      12.76       0.50       7.50
H      12.65       2.63       3.84
H      11.56       0.10       3.49
H       5.87       2.41       7.47
H       6.70       1.99      11.58
H       8.59       3.68      10.42
H       3.21       2.43       7.28
H       1.30       1.49      10.91
H      12.45       2.73       9.22
H       8.90       1.62       3.12
H       8.49       1.50       0.63
H       5.70       4.76       0.95
H       6.13       4.89       3.40
H      12.39       6.08      45.84
H       8.90       3.77      45.24
H      10.96       2.82      43.61
H       9.42       8.94      46.52
H       0.09       8.88      48.62
H      12.19       6.28      48.34
H       6.99       6.71      47.80
H       9.12       6.82      44.13
H       6.59       7.91      43.78
H       8.90       0.62      47.77
H       8.48      12.77      51.87
H      10.17      10.88      50.71
H       8.92       3.28      47.57
H       7.98       5.19      51.21
H       9.22       7.03      49.51
H       8.11      10.58      43.41
H       7.99      10.98      40.93
H      11.26       0.79      41.25
H      11.38       0.37      43.69
H       0.59       6.90      18.98
H       4.08       9.21      18.38
H       2.03      10.16      16.75
H       3.57       4.05      19.66
H      12.89       4.10      21.76
H       0.79       6.70      21.48
H       5.99       6.27      20.93
H       3.86       6.16      17.27
H       6.39       5.07      16.92
H       4.08      12.36      20.90
H       4.51       0.21      25.01
H       2.81       2.10      23.85
H       4.06       9.70      20.71
H       5.00       7.79      24.34
H       3.76       5.96      22.65
H       4.87       2.41      16.55
H       4.99       2.00      14.07
H       1.73      12.19      14.39
H       1.60      12.62      16.83
C       5.30      11.74       8.24
C       4.07       9.94       8.57
C       3.62      10.95       9.38
C       8.56      10.28       6.67
C       8.51      12.16       5.55
C       7.21      11.75       5.72
C       6.89       7.23       6.97
C       6.96       8.31       8.89
C       7.51       7.06       9.05
C       0.14       9.01       4.99
C      12.66       8.81       2.87
C      11.73       9.66       3.45
C       4.05       8.82       5.39
C       5.07       8.38       3.52
C       5.98       8.98       4.35
C      11.63       9.84       8.56
C      11.94       9.75      10.02
C      11.28       8.78      10.80
C      11.50       8.72      12.17
C      12.39       9.62      12.79
C       0.09      10.56      12.01
C      12.84      10.63      10.64
C      12.58       9.59      14.28
C       7.68       1.25      35.11
C       8.91       3.04      35.43
C       9.37       2.04      36.24
C       4.43       2.71      33.53
C       4.47       0.83      32.41
C       5.77       1.23      32.58
C       6.09       5.75      33.83
C       6.02       4.68      35.75
C       5.48       5.93      35.91
C      12.84       3.97      31.85
C       0.33       4.17      29.74
C       1.25       3.33      30.31
C       8.94       4.16      32.25
C       7.91       4.61      30.38
C       7.00       4.01      31.22
C       1.35       3.14      35.42
C       1.04       3.24      36.89
C       1.70       4.20      37.67
C       1.48       4.26      39.04
C       0.59       3.37      39.65
C      12.89       2.42      38.87
C       0.14       2.35      37.50
C       0.40       3.40      41.14
C       5.24       1.19      48.54
C       3.45       2.42      48.86
C       4.45       2.87      49.67
C       3.79      10.92      46.96
C       5.67      10.96      45.85
C       5.26      12.26      46.01
C       0.74      12.58      47.27
C       1.82      12.51      49.19
C       0.57      11.97      49.35
C       2.52       6.35      45.28
C       2.32       6.82      43.17
C       3.17       7.74      43.75
C       2.33       2.45      45.68
C       1.89       1.42      43.81
C       2.48       0.51      44.65
C       3.35       7.85      48.85
C       3.25       7.53      50.32
C       2.29       8.19      51.10
C       2.23       7.97      52.47
C       3.12       7.08      53.09
C       4.07       6.40      52.31
C       4.14       6.63      50.93
C       3.10       6.90       0.85
C       7.74      11.79      21.67
C       9.53      10.57      22.00
C       8.53      10.11      22.81
C       9.20       2.06      20.10
C       7.32       2.02      18.98
C       7.73       0.72      19.15
C      12.24       0.40      20.40
C      11.17       0.47      22.32
C      12.42       1.01      22.48
C      10.46       6.63      18.42
C      10.66       6.16      16.31
C       9.82       5.24      16.88
C      10.65      10.54      18.82
C      11.10      11.56      16.95
C      10.50      12.47      17.78
C       9.63       5.14      21.99
C       9.73       5.45      23.45
C      10.69       4.79      24.24
C      10.75       5.01      25.61
C       9.86       5.90      26.22
C       8.91       6.58      25.44
C       8.85       6.35      24.07
C       9.89       6.09      27.71
C      11.79       7.74      32.05
C      10.57       9.53      31.73
C      10.11       8.53      30.91
C       2.06       9.20      33.63
C       2.02       7.32      34.74
C       0.72       7.73      34.58
C       0.40      12.24      33.32
C       0.47      11.17      31.40
C       1.01      12.42      31.24
C       6.63      10.46      35.30
C       6.16      10.66      37.42
C       5.24       9.82      36.84
C      10.54      10.65      34.91
C      11.56      11.10      36.77
C      12.47      10.50      35.94
C       5.14       9.63      31.73
C       5.45       9.73      30.27
C       4.79      10.69      29.49
C       5.01      10.75      28.12
C       5.90       9.86      27.50
C       6.58       8.91      28.28
C       6.35       8.85      29.65
C       6.09       9.89      26.01
C       1.19       5.24       5.19
C       2.42       3.45       4.87
C       2.87       4.45       4.05
C      10.92       3.79       6.77
C      10.96       5.67       7.88
C      12.26       5.26       7.71
C      12.58       0.74       6.46
C      12.51       1.82       4.54
C      11.97       0.57       4.38
C       6.35       2.52       8.44
C       6.82       2.32      10.56
C       7.74       3.17       9.98
C       2.45       2.33       8.04
C       1.42       1.89       9.91
C       0.51       2.48       9.08
C       7.85       3.35       4.87
C       7.53       3.25       3.41
C       8.19       2.29       2.63
C       7.97       2.23       1.26
C       7.08       3.12       0.64
C       6.40       4.07       1.42
C       6.63       4.14       2.79
C       6.90       3.10      52.87
C      11.74       5.30      45.48
C       9.94       4.07      45.16
C      10.95       3.62      44.34
C      10.28       8.56      47.06
C      12.16       8.51      48.17
C      11.75       7.21      48.01
C       7.23       6.89      46.75
C       8.31       6.96      44.83
C       7.06       7.51      44.67
C       9.01       0.14      48.74
C       8.81      12.66      50.85
C       9.66      11.73      50.27
C       8.82       4.05      48.34
C       8.38       5.07      50.20
C       8.98       5.98      49.37
C       9.84      11.63      45.16
C       9.75      11.94      43.70
C       8.78      11.28      42.92
C       8.72      11.50      41.55
C       9.62      12.39      40.93
C      10.56       0.09      41.71
C      10.63      12.84      43.09
C       9.59      12.58      39.44
C       1.25       7.68      18.62
C       3.04       8.91      18.29
C       2.04       9.37      17.48
C       2.71       4.43      20.20
C       0.83       4.47      21.31
C       1.23       5.77      21.14
C       5.75       6.09      19.89
C       4.68       6.02      17.97
C       5.93       5.48      17.81
C       3.97      12.84      21.87
C       4.17       0.33      23.99
C       3.33       1.25      23.41
C       4.16       8.94      21.47
C       4.61       7.91      23.34
C       4.01       7.00      22.51
C       3.14       1.35      18.30
C       3.24       1.04      16.84
C       4.20       1.70      16.06
C       4.26       1.48      14.69
C       3.37       0.59      14.07
C       2.42      12.89      14.85
C       2.35       0.14      16.22
C       3.40       0.40      12.58
N       5.14      10.45       7.84
N       4.40      12.06       9.17
N       7.25      10.56       6.44
N       9.34      11.22       6.14
N       6.57       8.41       7.57
N       7.45       6.39       7.84
N       0.56       8.41       3.86
N      12.04       9.78       4.79
N       5.32       9.26       5.55
N       3.86       8.29       4.18
N       7.84       2.53      34.70
N       8.58       0.92      36.03
N       5.73       2.42      33.30
N       3.64       1.76      33.00
N       6.41       4.57      34.43
N       5.53       6.59      34.70
N      12.43       4.57      30.72
N       0.95       3.21      31.66
N       7.66       3.72      32.41
N       9.12       4.69      31.04
N       3.96       1.35      48.13
N       5.57       2.09      49.46
N       4.07      12.22      46.73
N       4.73      10.13      46.44
N       1.92      12.91      47.86
N      12.89      12.02      48.13
N       1.92       5.94      44.15
N       3.28       7.44      45.09
N       2.77       1.17      45.84
N       1.80       2.63      44.47
N       9.02      11.63      21.27
N       7.41      10.89      22.60
N       8.92       0.76      19.87
N       8.26       2.85      19.57
N      11.07       0.08      21.00
N       0.10       0.96      21.27
N      11.06       7.05      17.29
N       9.70       5.55      18.22
N      10.22      11.81      18.98
N      11.18      10.35      17.61
N      11.63       9.02      32.46
N      10.89       7.41      31.13
N       0.76       8.92      33.86
N       2.85       8.26      34.15
N       0.08      11.07      32.73
N       0.96       0.10      32.45
N       7.05      11.06      36.44
N       5.55       9.70      35.50
N      11.82      10.22      34.75
N      10.35      11.18      36.11
N       1.35       3.96       5.60
N       2.09       5.57       4.27
N      12.22       4.07       6.99
N      10.13       4.73       7.29
N      12.91       1.92       5.87
N      12.02      12.89       5.59
N       5.94       1.92       9.57
N       7.44       3.28       8.64
N       1.17       2.77       7.89
N       2.63       1.80       9.25
N      10.45       5.14      45.89
N      12.06       4.40      44.56
N      10.56       7.25      47.29
N      11.22       9.34      47.58
N       8.41       6.57      46.16
N       6.39       7.45      45.88
N       8.41       0.56      49.87
N       9.78      12.04      48.93
N       9.26       5.32      48.18
N       8.29       3.86      49.54
N       2.53       7.84      19.03
N       0.92       8.58      17.70
N       2.42       5.73      20.42
N       1.76       3.64      20.72
N       4.57       6.41      19.30
N       6.59       5.53      19.02
N       4.57      12.43      23.00
N       3.21       0.95      22.07
N       3.72       7.66      21.32
N       4.69       9.12      22.68
O      11.96       8.61      14.89
O       0.27      10.46      14.87
O      12.12      10.88       7.94
O      10.91       8.97       8.01
O       1.02       4.37      41.75
O      12.72       2.52      41.73
O       0.87       2.10      34.80
O       2.07       4.01      34.87
O       2.12       7.51       1.46
O       3.97       6.23       1.44
O       4.39       7.36      48.23
O       2.48       8.56      48.30
O      10.86       5.47      28.32
O       9.01       6.76      28.30
O       8.59       5.63      21.37
O      10.50       4.42      21.44
O       5.47      10.86      25.40
O       6.76       9.01      25.42
O       5.63       8.59      32.35
O       4.42      10.50      32.29
O       7.51       2.12      52.26
O       6.23       3.97      52.28
O       7.36       4.39       5.49
O       8.56       2.48       5.42
O       8.61      11.96      38.83
O      10.46       0.27      38.85
O      10.88      12.12      45.79
O       8.97      10.91      45.72
O       4.37       1.02      11.97
O       2.52      12.72      11.99
O       2.10       0.87      18.92
O       4.01       2.07      18.86
