100

Zn       5.36       5.54       7.65
Zn       5.36       8.24       7.65
H       8.59       4.45       8.57
H       2.24       9.44       7.10
H       2.13       4.45       6.73
H       8.48       9.45       8.20
H       5.93       4.96      14.40
H       6.30       8.99       0.92
H       4.78       4.96       0.91
H       4.41       8.99      14.37
H       5.86       4.94      11.90
H       6.36       8.94       3.42
H       4.85       4.93       3.40
H       4.35       8.95      11.88
H       5.87      12.87       9.75
H       6.34       0.91       5.72
H       4.85      12.87       5.54
H       4.38       0.91       9.58
H       5.82      10.36       9.66
H       6.29       3.42       5.81
H       4.90      10.36       5.63
H       4.43       3.42       9.49
H       9.54      12.65       5.97
H       8.08      11.71       6.33
H       8.23      13.38       6.92
H       8.63      11.75       8.78
H      10.07      12.71       8.45
H      10.52       1.37       5.53
H       0.75       2.33       4.73
H       1.05       0.62       5.14
H       2.22       2.14       6.76
H       0.99       1.17       7.57
H       1.19      12.65       9.33
H       2.64      11.71       8.97
H       2.50      13.38       8.38
H       2.09      11.75       6.52
H       0.65      12.71       6.84
H       0.19       1.37       9.77
H       9.97       2.33      10.57
H       9.67       0.62      10.16
H       8.50       2.14       8.54
H       9.73       1.17       7.72
C       5.12       6.91      10.24
C       5.60       6.91       5.06
C       5.18       6.98      14.56
C       5.53       6.98       0.74
C       5.63      12.36       8.82
C       5.89       1.42       6.57
C       5.09      12.36       6.48
C       4.83       1.42       8.73
C       5.62      10.97       8.78
C       5.88       2.81       6.61
C       5.10      10.97       6.52
C       4.84       2.81       8.69
C       5.36      13.08       7.65
C       5.36       0.70       7.65
C       7.95       6.90       7.91
C       2.77       6.90       7.39
C       9.59       4.46       8.14
C       1.19       9.45       7.36
C       1.13       4.46       7.15
C       9.53       9.45       7.94
C      10.23       3.26       7.96
C       0.53      10.65       7.47
C       0.49       3.26       7.34
C      10.19      10.65       7.82
C       0.54       5.72       7.48
C      10.16       8.18       7.78
C      10.18       5.72       7.82
C       0.56       8.18       7.52
C       1.26       6.94       7.41
C       9.46       6.95       7.89
C       5.57       5.83      13.85
C       5.97       8.10       1.46
C       5.14       5.83       1.45
C       4.74       8.10      13.83
C       5.54       5.81      12.46
C       6.01       8.08       2.85
C       5.18       5.81       2.84
C       4.70       8.08      12.44
C       5.11       6.94      11.74
C       5.61       6.94       3.56
C       9.42      11.93       8.03
C       8.78      12.45       6.74
C       1.13       1.99       6.85
C       0.57       1.55       5.48
C       1.30      11.93       7.27
C       1.94      12.45       8.56
C       9.59       1.99       8.45
C      10.15       1.55       9.81
N       5.36      10.29       7.65
N       5.36       3.49       7.65
O       5.48       5.82       9.69
O       5.94       7.98       5.67
O       5.24       5.82       5.61
O       4.78       7.98       9.63
O       7.39       5.86       7.43
O       3.44       7.90       6.96
O       3.33       5.86       7.87
O       7.28       7.91       8.34
