78

Zn       3.29       5.21       7.56
Zn       3.00       7.99       7.71
H      -1.31       8.13       7.52
H       2.68       2.93       9.35
H       0.63       9.70       7.40
H       4.63       3.29       5.71
H       5.56       4.47      10.73
H       6.00       4.29      12.46
H      -1.14       5.74      10.39
H      -0.71       5.37      12.07
H       8.09       2.89      11.54
H       0.37       3.74      10.50
H       7.68       3.27       9.85
H       7.60       5.05       7.70
H       0.38       9.42       4.82
H       0.72       7.68       4.79
H      -0.71       9.27       2.58
H      -0.33       7.55       2.49
H       7.10       7.09       4.50
H       6.17       7.89       3.22
H       6.71       8.82       4.62
H       1.12       6.64      11.83
H       3.97       4.89       3.35
H       1.04       6.58      14.31
H       4.25       5.06       0.88
H       4.28      12.96       7.89
H       3.05       0.44       9.39
H       4.65      10.46       8.01
C       3.27       6.44      10.24
C       4.56       1.24       6.46
C       2.15      12.76       7.55
C       4.10       0.42       7.50
C       5.70       6.98       7.54
C       0.58       6.24       7.70
C       7.17       7.12       7.54
C      -0.89       6.07       7.65
C       4.41       6.37      13.87
C       2.70       8.02       1.46
C       4.45       6.31      12.47
C       3.01       6.68       5.03
C       2.48       7.91       2.85
C       3.26       6.41      11.74
C       2.98       6.79       3.53
C       2.04       6.54      12.41
C       3.60       5.76       2.80
C       2.00       6.53      13.80
C       3.78       5.86       1.43
C       3.18       6.47      14.56
C       3.34       7.00       0.73
C       6.15       4.90      11.55
C       3.44      12.26       7.77
C       7.62       4.99      11.20
C      -0.69       3.65      10.75
C       0.57       8.57       4.15
C      -0.59       8.36       3.19
C       7.00       8.02       3.92
C       3.41       1.04       8.56
C       3.66      10.89       7.85
C       3.20       2.41       8.54
C       1.40      10.46       7.50
C       4.31       2.62       6.51
C       1.11      11.82       7.40
I       6.26       6.46      14.90
I       2.10       9.82       0.53
I      -0.87      12.38       6.94
I       5.57       0.47       4.79
N       2.64      10.02       7.72
N       3.64       3.17       7.53
O       3.58       5.38       9.62
O       1.80       8.92       3.47
O       3.16       7.77       5.68
O       2.92       7.54       9.71
O       2.94       5.51       5.54
O       5.22       5.83       7.29
O       1.04       7.42       7.53
O       5.04       8.04       7.80
O       1.28       5.19       7.90
O       5.66       6.25      11.80
