252

Zn      14.38      17.13      12.66
Zn      12.15      11.19       3.40
Zn      14.37       2.17      12.69
Zn      12.14       8.01       3.36
Zn      12.05       0.54      11.11
Zn      12.05       0.61      14.26
Zn      14.47       9.56       1.81
Zn      14.47       9.63       4.97
Zn       3.00      16.07       5.90
Zn       5.23      10.23      15.22
Zn       2.99       1.11       5.93
Zn       5.22       7.05      15.19
Zn       5.32      17.70       7.48
Zn       5.32      17.63       4.33
Zn       2.90       8.68      16.78
Zn       2.90       8.62      13.63
H       5.44      17.67      10.80
H      15.10      14.26       9.70
H      11.35      15.75       8.21
H      11.39      14.03       6.39
H      15.13      12.53       7.89
H       1.14       2.62      13.36
H       3.63       2.59      13.42
H       3.61      16.67      11.94
H       1.22       8.46       1.55
H      11.73      14.30       0.68
H      14.86      12.30      17.20
H      14.82      14.03      15.39
H      11.69      16.13      17.46
H       8.03       7.52       2.86
H       1.23      10.72       5.22
H       3.72      10.77       5.18
H       7.92      17.72      10.77
H      14.82       5.24       9.95
H      11.68       3.16       7.88
H      11.72       4.89       6.07
H      14.85       6.98       8.14
H       1.12      16.69      11.95
H       7.93       1.56      14.59
H       5.44       1.59      14.59
H       3.70       8.40       1.58
H      11.44       5.12       0.43
H      15.12       6.79      17.45
H      15.08       5.08      15.63
H      11.41       3.49      17.20
H       8.01      11.71       3.82
H       5.51      11.70       3.85
H       5.54       7.50       2.85
H      11.94       0.56       7.78
H       2.57      12.97       8.62
H       5.67      15.10      10.72
H       5.62      13.37      12.54
H       2.54      11.24      10.43
H      16.24       1.56       6.59
H      16.15       9.80      17.04
H       5.95      13.11      18.18
H       2.25      11.47       1.12
H       2.29      13.18       2.95
H       5.98      14.74       1.41
H       9.37       6.55      14.68
H      16.14       7.51      13.39
H      13.66       7.47      13.42
H       9.46       0.50       7.82
H       2.25       3.96       8.91
H       6.02       2.50      10.37
H       5.99       4.22      12.19
H       2.22       5.69      10.72
H      16.23      15.61       5.23
H      13.74      15.64       5.17
H      13.76       1.57       6.60
H       9.43      16.68       3.99
H      11.92      16.65       3.99
H      13.68       9.85      17.02
H       5.62       3.93      17.89
H       2.56       5.99       1.43
H       2.60       4.26       3.24
H       5.66       2.10       1.12
H       9.34      10.70      15.82
H      11.83      10.72      15.83
H      11.86       6.57      14.66
C      13.29      12.16       5.95
C       5.98      18.10      11.64
C      13.26      13.18       7.04
C      13.23      15.10       9.06
C      13.22      16.14      10.13
C      14.29      14.19       8.97
C      12.18      15.04       8.14
C      12.20      14.09       7.12
C      14.31      13.24       7.97
C       1.69       1.72      13.07
C       3.08       1.70      13.10
C       3.07      17.57      12.25
C      13.23      16.21      15.24
C       1.77       8.94       2.36
C      13.25      15.18      16.32
C      13.30      13.25      18.34
C      13.32      12.12       0.83
C      12.40      14.33      18.42
C      14.17      13.14      17.25
C      14.15      14.10      16.24
C      12.38      15.29      17.41
C       7.47       8.43       3.07
C       1.78      10.23       4.41
C       3.17      10.25       4.39
C      13.31       7.08       5.92
C       7.37      18.14      11.61
C      13.29       6.03       7.00
C      13.25       4.10       9.01
C      13.22       3.07      10.10
C      14.14       5.18       9.09
C      12.37       4.00       7.92
C      12.40       4.96       6.92
C      14.17       6.14       8.09
C       1.68      17.57      12.26
C       7.37       1.13      13.76
C       5.98       1.14      13.75
C      13.22       3.16      15.23
C       3.16       8.91       2.38
C      13.24       4.19      16.31
C      13.28       6.10      18.34
C      13.30       7.04       0.83
C      12.23       5.17      18.27
C      14.31       6.07      17.39
C      14.29       5.12      16.38
C      12.21       4.22      17.26
C       7.46      10.79       3.62
C       6.06      10.78       3.64
C       6.08       8.43       3.06
C       8.08       0.58      12.68
C      16.86       0.59      12.66
C       9.56       0.59      12.68
C       5.26       0.55      12.70
C       0.98       0.59      12.66
C       3.79       0.56      12.69
C       1.07       9.59       3.39
C       9.66       9.62       3.36
C      16.96       9.60       3.38
C       3.88       9.58       3.38
C       8.17       9.61       3.35
C       5.36       9.59       3.36
C       4.06      11.16      12.66
C      11.39       0.13       6.94
C       4.08      12.20      11.59
C       4.12      14.14       9.57
C       4.14      15.17       8.49
C       3.24      13.05       9.48
C       4.98      14.25      10.67
C       4.96      13.29      11.68
C       3.22      12.09      10.49
C      15.69       0.67       6.30
C       4.16      15.09       3.36
C      15.60       9.32      16.23
C       4.14      14.06       2.28
C       4.10      12.14       0.25
C       4.08      11.21      17.76
C       5.16      13.06       0.33
C       3.06      12.19       1.19
C       3.08      13.14       2.21
C       5.17      14.02       1.34
C       9.92       7.46      14.92
C      15.59       8.01      14.19
C      14.20       7.99      14.21
C       4.08       6.08      12.64
C      10.00       0.09       6.97
C       4.10       5.06      11.56
C       4.13       3.13       9.54
C       4.15       2.09       8.46
C       3.06       4.03       9.63
C       5.19       3.21      10.45
C       5.17       4.16      11.46
C       3.04       4.99      10.64
C      15.68      16.51       5.51
C      14.29      16.53       5.48
C      14.30       0.67       6.30
C       9.99      17.10       4.82
C      11.38      17.09       4.83
C       4.15       2.05       3.36
C      14.21       9.35      16.21
C       4.14       3.08       2.28
C       4.09       5.01       0.26
C       4.07       6.14      17.77
C       4.97       3.92       0.17
C       3.24       5.14       1.37
C       3.26       4.18       2.38
C       4.99       2.96       1.18
C       9.90       9.80      15.57
C      11.29       9.80      15.58
C      11.31       7.48      14.90
C       9.29      17.66       5.91
C       0.51      17.65       5.91
C       7.81      17.65       5.92
C      12.11      17.68       5.88
C      16.39      17.65       5.91
C      13.58      17.67       5.88
C      16.30       8.66      15.21
C       7.71       8.63      15.23
C       0.42       8.64      15.21
C      13.49       8.67      15.22
C       9.20       8.63      15.24
C      12.02       8.65      15.23
O      12.36      17.08      10.01
O      14.13      11.21       6.08
O      14.06      16.01      11.08
O      12.47      12.31       4.99
O      16.28      17.59      12.58
O      14.13      11.14       0.68
O      12.38      17.16      15.36
O      12.51      12.29       1.81
O      14.06      16.06      14.28
O      10.24      10.76       3.41
O      12.40       2.10       9.96
O      14.15       8.02       6.06
O      14.03       3.24      11.07
O      12.48       6.93       4.97
O      16.28       1.73      12.74
O      14.16       7.97       0.71
O      12.38       2.20      15.36
O      12.45       6.91       1.77
O      14.04       3.31      14.26
O      10.24       8.48       3.32
O      13.22       0.58      12.68
O      10.14       0.48      11.54
O      10.15       0.71      13.81
O      13.30       9.60       3.39
O      16.38       9.48       2.25
O      16.37       9.74       4.51
O       4.96      16.14       8.63
O       3.22      10.22      12.53
O       3.34      15.00       7.51
O       4.89      11.31      13.62
O       1.09      16.51       5.84
O       3.22      10.28      17.87
O       4.99      16.04       3.23
O       4.93      11.34      16.82
O       3.33      14.94       4.33
O       7.13       9.76      15.28
O       5.01       1.16       8.58
O       3.23       7.03      12.51
O       3.29       2.22       7.52
O       4.90       5.93      13.61
O       1.09       0.65       5.98
O       3.25       7.12      17.92
O       4.99       1.09       3.23
O       4.86       5.96      16.79
O       3.33       2.20       4.33
O       7.13       7.49      15.16
O       4.15      17.66       5.91
O       7.23      17.75       7.05
O       7.22      17.53       4.79
O       4.07       8.64      15.20
O       0.99       8.77      16.35
O       1.00       8.50      14.09
