116

Cu       1.12      15.94       7.96
Cu       4.54       9.33       5.82
Cu       8.83       3.90       5.82
Cu       5.42      10.51       7.96
H       2.49      16.70      10.61
H       3.17      10.09       3.17
H       7.47       3.14       3.17
H       6.79       9.75      10.61
H       4.02      15.66      12.33
H       1.64       9.05       1.45
H       5.94       4.17       1.45
H       8.32      10.78      12.33
H       3.39      11.88      10.33
H       2.27       5.27       3.45
H       6.57       7.96       3.45
H       7.69      14.57      10.33
H       1.90      13.07       8.72
H       3.76       6.46       5.05
H       8.06       6.76       5.05
H       6.20      13.37       8.72
H       4.75      11.90      12.37
H       0.91       5.29       1.40
H       5.21       7.93       1.40
H       9.04      14.54      12.37
H       2.98      13.74       5.68
H       2.68       7.13       8.10
H       6.97       6.09       8.10
H       7.28      12.70       5.68
H       3.83      13.40       4.16
H       1.83       6.79       9.62
H       6.12       6.44       9.61
H       8.13      13.05       4.16
H       5.09      14.75       6.63
H       9.17       8.14       7.15
H       4.87       5.09       7.15
H       0.79      11.70       6.63
H       5.88      14.57       5.06
H       8.37       7.96       8.72
H       4.08       5.26       8.72
H       1.58      11.87       5.06
H       5.01       3.63       5.34
H       9.24      10.24       8.44
H       4.95      16.20       8.44
H       0.71       9.59       5.34
H       4.16       2.85       4.00
H       1.49       9.46       9.78
H       5.79      16.99       9.78
H       8.46      10.37       4.00
C       2.72      15.63      10.60
C       2.94       9.02       3.17
C       7.24       4.20       3.18
C       7.01      10.81      10.60
C       3.56      15.06      11.54
C       2.09       8.45       2.23
C       6.39       4.77       2.24
C       7.86      11.38      11.54
C       3.82      13.68      11.47
C       1.84       7.07       2.30
C       6.14       6.15       2.30
C       8.12      12.76      11.48
C       3.21      12.95      10.45
C       2.45       6.34       3.33
C       6.74       6.89       3.33
C       7.51      13.50      10.45
C       2.38      13.60       9.54
C       3.27       6.99       4.23
C       7.57       6.23       4.23
C       6.68      12.84       9.54
C       4.66      12.99      12.44
C       1.00       6.38       1.33
C       5.29       6.84       1.34
C       8.96      13.45      12.44
C       4.39      12.20       5.84
C       1.27       5.59       7.94
C       5.57       7.63       7.94
C       8.68      14.24       5.84
C       3.97      13.53       5.24
C       1.69       6.92       8.53
C       5.98       6.30       8.53
C       8.27      12.91       5.24
C       4.91      14.71       5.55
C       9.35       8.10       8.23
C       5.05       5.13       8.23
C       0.61      11.74       5.55
C       4.31       2.82       5.08
C       1.35       9.43       8.69
C       5.64      17.02       8.69
C       8.61      10.40       5.08
C       2.98       3.11       5.75
C       2.68       9.72       8.02
C       6.98      16.72       8.02
C       7.28      10.11       5.75
N       2.13      14.92       9.62
N       3.53       8.31       4.16
N       7.83       4.91       4.16
N       6.43      11.52       9.62
N       5.30      13.64      13.36
N       0.36       7.03       0.41
N       4.66       6.19       0.41
N       9.59      12.80      13.36
O       4.90      12.21       7.01
O       0.76       5.60       6.77
O       5.06       7.63       6.77
O       9.19      14.24       7.01
O       2.85      15.94       6.96
O       2.80       9.34       6.82
O       7.10       3.89       6.82
O       7.15      10.50       6.96
O       4.15      11.17       5.13
O       1.51       4.56       8.65
O       5.81       8.67       8.65
O       8.44      15.28       5.13
O       2.08       3.69       5.06
O       3.58      10.31       8.72
O       7.87      16.14       8.72
O       6.38       9.53       5.06
