156

Zn       0.83       3.25       9.54
Zn       3.41       6.93       9.16
Zn       0.84       5.80       7.51
Zn       3.59       4.25      11.02
H       1.49       1.17       7.24
H      -4.44      10.70       8.95
H       5.63       6.16       6.90
H      -5.33      13.00       8.97
H       2.20      -2.13       9.62
H       4.98      -1.04      12.74
H       6.53      -2.75      13.67
H       7.45      -5.03      13.61
H      -4.36       1.41       7.77
H      -4.29       5.26       5.82
H      12.30       6.22       4.88
H       1.84       8.72      11.35
H       9.84       6.35       4.96
H       0.93       7.88       4.86
H       7.61       1.83       8.14
H       9.64       0.39       8.24
H      12.10       0.24       8.11
H       1.55       9.20       3.06
H       2.28      10.57       1.12
H      -3.74       5.01      15.83
H      -2.59       5.18      13.63
H       4.71      10.94       5.44
H       4.87       5.67      13.78
H       0.04       5.30      17.86
H       5.44      12.27       3.47
H       4.84       1.21      11.82
H       1.21       5.44      15.68
H       4.03       7.15      15.57
H       4.37       8.49      17.64
H      -0.54      -0.35       3.03
H       0.15       0.65       5.21
H       5.75      10.33      13.23
H       2.14       2.29       0.94
H       4.47       9.20      11.32
H      -5.33      -5.81      15.31
H       2.88       3.26       3.12
H       4.39       9.31       7.04
H       5.72       2.52       9.26
H       2.40       4.81       5.05
H      -1.38       4.38      11.70
H      -0.93       5.18       4.98
H      -2.53       4.76       4.78
H       0.66      -1.07      10.42
H      -0.07       0.40      10.14
H      -2.47       2.41       9.14
H       2.29       5.59      13.67
H      -1.57       7.17       9.15
H       0.33      10.23      12.48
H      -2.63       9.15       9.53
C       1.71       2.18       6.90
C      -2.10       3.09       8.38
C       1.51       5.23      13.01
C       5.48       5.35       7.60
C      -0.60       7.40       9.59
C       0.12       5.11      13.23
C      -0.25       8.39      10.53
C      -2.75       3.54       7.21
C       4.74       7.80      13.06
C      -0.56      10.47      11.90
C      -1.04       9.55      10.95
C       6.20       4.14       7.75
C      -2.23       9.85      10.27
C      -2.86      11.09      10.40
C      -2.30      12.07      11.28
C       1.74       8.08       5.56
C      -1.17      11.72      12.08
C      -4.00      11.45       9.60
C      -4.49      12.73       9.61
C       3.35      -3.74      10.44
C       4.43      -4.10      11.30
C       5.01      -3.10      12.15
C       2.78       9.03       5.48
C       6.10      -3.49      13.00
C       6.61      -4.76      12.97
C       2.93      -2.40      10.38
C       3.51      -1.41      11.19
C       3.84       1.14      11.40
C       4.53      -1.79      12.09
C      13.77       2.23       7.27
C      -4.15       3.35       6.83
C      -4.83       4.37       6.14
C      12.43       4.35       5.98
C       3.11      -0.01      11.07
C      11.68       3.28       6.55
C      12.37       2.18       7.16
C      11.72       5.43       5.36
C      10.36       5.51       5.40
C       9.60       4.50       6.09
C       3.49       8.82       6.67
C      10.27       3.36       6.61
C       9.51       2.35       7.29
C      10.22       1.19       7.78
C      11.58       1.11       7.71
C      -0.36       4.62      12.00
C       8.24       4.64       6.37
C       7.49       3.76       7.17
C       8.16       2.58       7.55
C      -0.60       5.28      14.49
C       0.12       5.37      15.71
C      -0.52       5.30      16.93
C       1.90       0.52      10.55
C      -1.92       5.12      16.98
C      -2.65       5.12      15.78
C      -2.00       5.21      14.55
C       1.13       8.19      10.72
C       2.79      10.65       2.08
C       2.39       9.89       3.17
C       3.91      11.50       2.18
C       3.10       9.95       4.39
C       4.17      10.85       4.50
C       4.58      11.61       3.41
C       1.57       2.02       4.32
C       5.53       3.48       8.80
C       2.12       2.48       3.10
C       1.71       1.95       1.88
C      -1.79       4.40       6.62
C       0.74       0.92       1.86
C       0.21       0.45       3.07
C       0.61       0.99       4.28
C       4.67       8.88      16.67
C       4.49       8.14      15.51
C       5.26      10.15      16.60
C       4.89       8.63      14.25
C       5.43       9.93      14.19
C       2.20       4.03       5.79
C       5.62      10.68      15.35
C       4.72       6.40      12.99
C       1.88       2.67       5.59
C       4.54       8.20      11.73
N       1.88       3.18       7.79
N       4.52      12.13       1.08
N       0.30       0.26       0.70
N       4.50       5.40       8.52
N      -5.80      -6.56      17.73
N       1.84       7.37       6.70
N       3.15       2.26      11.11
N       2.93       7.83       7.39
N       1.93       1.87      10.57
N       4.52       4.26       9.25
N       2.17       4.33       7.10
N       1.56       7.18       9.93
N       0.66       4.44      11.15
N      -1.84       5.12       5.43
N       0.78      -0.14      10.03
N      -0.70       4.49       7.41
N       4.51       5.99      11.72
N       4.39       7.12      10.94
N      -0.89       3.65       8.50
N       1.81       4.81      11.77
N       0.49       6.70       9.24
N       3.84      12.10       0.00
F       7.63       5.78       5.91
