94

Zn       3.47       5.57       8.06
Zn       6.26       5.50       7.99
H       3.20       6.95       1.14
H       1.24       7.54       7.48
H       8.38       4.86      10.05
H       1.26       5.04      10.11
H       8.42       4.10       6.49
H       1.30       4.01       6.65
H       8.48       5.78       5.98
H       1.37       5.64       5.98
H       8.48       3.57       8.84
H       1.36       3.66       9.01
H       3.38       7.18      14.90
H       5.81       7.45       1.27
H       5.47       7.83      15.05
H       6.90       6.07       1.06
H       2.68       5.26       1.17
H       4.82       3.58      14.81
H       6.46       4.21      14.99
H       4.32       3.41       1.06
H       6.05       3.72       1.23
H       2.75       9.76       7.66
H       6.97      10.11       7.96
H       3.16       1.43       6.46
H       2.63       1.14       8.14
H       5.53       1.05       5.91
H       3.31       9.00       9.99
H       3.46      10.42      10.82
H       6.70       9.27       9.69
H       5.90       9.72      11.05
H       9.00       6.05      14.50
H       1.64       3.65      14.61
H       3.18       8.40       4.55
H       8.30       9.09       5.11
H       6.80       1.41       7.10
H       4.42       1.35      10.06
H       6.09       1.00       9.57
H       8.44       7.13       9.36
H       1.31       7.29       9.23
H       8.37       7.57       7.64
C       4.86       8.12       7.89
C       5.85       0.88       6.94
C       4.84      10.16       9.34
C       4.86       9.65       7.83
C       4.77       1.41       7.90
C       4.93       5.64      10.63
C       5.03       0.83       9.31
C       8.82       6.87       8.36
C       0.87       6.91       8.30
C       8.84       4.57       9.10
C       0.90       4.64       9.16
C       5.13       4.09       0.76
C       8.86       5.07       6.73
C       0.91       5.03       6.76
C       4.82       2.93       7.99
C       4.86       5.47       5.41
C       3.56       6.17      15.27
C       5.93       6.86      15.30
C       5.91       6.48       0.78
C       3.44       5.94       0.77
C       4.83       5.49       3.96
C       4.98       5.75      14.74
C       5.42       4.36      15.29
C       4.83       5.51       1.30
C       7.29       6.94      14.61
C       2.38       5.38      14.75
C       3.42       9.91       5.67
C       6.68       9.52       5.97
C       4.82       5.50       2.75
C       4.98       5.73      13.29
C       4.98       5.70      12.08
C       3.59      10.25       7.15
C       6.17      10.22       7.22
C       3.41       0.91       7.40
N       8.33       5.50       8.05
N       1.40       5.53       8.08
N       3.49      10.00       9.89
N       5.77       9.34      10.12
O       3.77       7.57       8.24
O       8.12       5.92      14.94
O       1.38       5.90      14.26
O       2.47       4.04      14.94
O       3.46      10.70       4.74
O       3.12       8.59       5.51
O       6.02       9.13       5.02
O       8.05       9.46       5.98
O       5.95       7.52       7.63
O       3.79       5.42      10.11
O       6.04       5.78      10.02
O       3.72       3.56       7.87
O       5.95       3.47       8.22
O       3.76       5.72       6.00
O       5.98       5.22       5.96
O       7.61       7.84      13.85
