236

Al       5.04      18.76      21.99
Al       1.63       6.28       7.33
Al       1.71      18.80      21.99
Al       4.96       6.24       7.33
H       1.92       9.52       9.93
H       4.74      15.51      19.41
H       4.75      15.52      24.59
H       1.93       9.53       4.74
H       5.25       3.00       4.74
H       1.40      22.05      24.58
H       1.41      22.04      19.40
H       5.27       2.99       9.92
H       1.88      11.14      11.82
H       4.76      13.90      17.52
H       4.79      13.90      26.48
H       1.91      11.14       2.85
H       5.22       1.38       2.84
H       1.43      23.66      26.47
H       1.45      23.66      17.50
H       5.24       1.38      11.81
H       4.63       9.74      12.93
H       2.03      15.28      16.41
H       2.04      15.30      27.59
H       4.64       9.76       1.75
H       1.30       2.78       1.73
H       5.36      22.28      27.58
H       5.37      22.26      16.40
H       1.31       2.76      12.91
H       4.64       8.20      10.98
H       2.02      16.83      18.36
H       2.03      16.84      25.64
H       4.65       8.22       3.70
H       1.31       4.32       3.68
H       5.36      20.73      25.63
H       5.36      20.72      18.35
H       1.31       4.31      10.96
H       4.63      13.80      15.23
H       2.03      11.24      14.09
H       2.03      11.24       0.57
H       4.64      13.80      28.75
H       1.30      23.76      28.75
H       5.37       1.28       0.58
H       5.37       1.28      14.09
H       1.30      23.76      15.24
H       3.51      12.25      11.43
H       5.13      12.96      11.62
H       2.55      14.08      12.88
H       4.15      14.83      12.97
H       4.17      15.10      10.44
H       2.78      15.93      11.17
H       2.56      14.37      10.36
H       3.95      11.90      16.81
H       2.53      10.90      16.45
H       2.62      13.09      18.61
H       1.27      11.99      18.31
H       2.75      10.01      18.95
H       2.64      11.19      20.27
H       4.09      11.13      19.25
H       3.16      12.79      26.10
H       1.54      12.08      26.28
H       4.12      10.96      27.54
H       2.52      10.21      27.63
H       2.50       9.94      25.10
H       3.89       9.11      25.83
H       4.11      10.67      25.02
H       2.71      13.14       2.15
H       4.14      14.14       1.78
H       4.05      11.95       3.95
H       5.40      13.05       3.65
H       3.92      15.03       4.28
H       4.03      13.85       5.61
H       2.58      13.90       4.59
H       0.18       0.27       3.23
H       1.79      24.60       3.05
H       5.89      23.48       1.79
H       0.82      22.73       1.69
H       0.84      22.46       4.22
H       6.12      21.63       3.49
H       5.89      23.19       4.30
H       0.62       0.62      27.18
H       5.86       1.62      27.54
H       5.96      24.47      25.38
H       4.61       0.52      25.67
H       6.08       2.50      25.04
H       5.98       1.32      23.72
H       0.76       1.38      24.74
H       6.49      24.77      17.89
H       4.88       0.44      17.71
H       0.78       1.56      16.45
H       5.85       2.31      16.36
H       5.83       2.58      18.88
H       0.55       3.41      18.15
H       0.78       1.85      18.96
H       6.05      24.42      12.52
H       0.81      23.42      12.88
H       0.72       0.57      10.72
H       2.07      24.51      11.01
H       0.59      22.53      10.38
H       0.70      23.71       9.06
H       5.91      23.66      10.07
H       3.35      17.02      21.86
H       3.32       8.02       7.19
H       0.01      20.54      22.14
H       6.66       4.50       7.47
C       3.39      20.37      20.16
C       3.29       4.66       9.15
C       3.28       4.67       5.50
C       3.38      20.38      23.81
C       0.05      17.19      23.83
C       6.62       7.86       5.51
C       6.62       7.85       9.16
C       0.05      17.18      20.17
C       1.05       9.59      10.59
C       5.61      15.45      18.75
C       5.61      15.45      25.25
C       1.06       9.59       4.09
C       4.39       2.93       4.08
C       2.27      22.11      25.24
C       2.28      22.11      18.74
C       4.40       2.93      10.57
C       1.03      10.48      11.65
C       5.62      14.56      17.68
C       5.64      14.56      26.32
C       1.05      10.48       3.02
C       4.37       2.04       3.01
C       2.29      23.00      26.31
C       2.30      23.00      17.67
C       4.38       2.04      11.64
C       6.59      10.57      12.51
C       0.07      14.47      16.83
C       0.08      14.47      27.17
C       6.60      10.57       2.16
C       3.26       1.95       2.15
C       3.40      23.09      27.16
C       3.41      23.09      16.81
C       3.27       1.95      12.50
C       5.49       9.72      12.26
C       1.17      15.31      17.08
C       1.18      15.32      26.93
C       5.50       9.73       2.41
C       2.16       2.80       2.40
C       4.50      22.25      26.91
C       4.51      22.24      17.06
C       2.17       2.79      12.25
C       5.50       8.84      11.18
C       1.17      16.18      18.16
C       1.17      16.20      25.84
C       5.50       8.86       3.50
C       2.16       3.68       3.48
C       4.50      21.38      25.83
C       4.51      21.36      18.15
C       2.17       3.66      11.16
C       6.61       8.78      10.33
C       0.05      16.25      19.01
C       0.06      16.27      24.99
C       6.62       8.79       4.35
C       3.28       3.74       4.33
C       3.39      21.31      24.98
C       3.39      21.30      19.00
C       3.28       3.73      10.31
C       5.47      12.30      13.99
C       1.19      12.73      15.36
C       1.20      12.74      28.65
C       5.47      12.31       0.69
C       2.14       0.22       0.68
C       4.53      24.83      28.63
C       4.53      24.82      15.34
C       2.14       0.21      13.97
C       5.54      13.25      15.00
C       1.12      11.78      14.34
C       1.13      11.79       0.34
C       5.55      13.26      29.00
C       2.21      24.31      28.99
C       4.46       0.74       0.33
C       4.46       0.73      14.32
C       2.21      24.30      14.99
C       0.06      13.49      15.72
C       6.61      11.54      13.63
C       6.61      11.55       1.05
C       0.06      13.50      28.29
C       3.39      24.07      28.27
C       3.27       0.98       1.04
C       3.28       0.97      13.61
C       3.40      24.06      15.70
C       4.14      12.86      12.10
C       3.50      14.22      12.32
C       3.24      14.95      11.00
C       2.86      11.87      16.86
C       2.37      12.06      18.29
C       2.99      11.04      19.24
C       2.53      12.18      26.76
C       3.17      10.82      26.99
C       3.43      10.09      25.66
C       3.81      13.17       2.19
C       4.30      12.98       3.63
C       3.68      14.00       4.58
C       0.80      24.70       2.57
C       0.16      23.34       2.34
C       6.57      22.61       3.66
C       6.19       0.65      27.13
C       5.71       0.45      25.70
C       6.33       1.47      24.75
C       5.87       0.34      17.23
C       6.51       1.70      17.00
C       0.10       2.43      18.32
C       0.48      24.39      12.47
C       0.97      24.58      11.04
C       0.34      23.57      10.08
O       2.25      20.06      23.33
O       4.42       4.99       5.98
O       4.42       4.98       8.67
O       2.25      20.05      20.64
O       5.58      17.50      20.65
O       1.09       7.53       8.69
O       1.09       7.54       5.99
O       5.58      17.51      23.35
O       4.52      19.98      20.60
O       2.16       5.05       8.71
O       2.15       5.06       5.94
O       4.51      19.99      23.37
O       1.18      17.58      23.39
O       5.49       7.47       5.95
O       5.49       7.46       8.73
O       1.18      17.57      20.61
O       3.36      17.98      22.00
O       3.30       7.07       7.33
O       0.03      19.59      21.99
O       6.64       5.45       7.33
O       4.27      12.11      13.33
O       2.40      12.94      16.00
O       2.40      12.93      27.99
O       4.27      12.10       1.34
O       0.94       0.41       1.34
O       5.73      24.62      27.99
O       5.73      24.63      16.00
O       0.94       0.42      13.32
