164

Zn      11.22       2.31       7.87
Zn       1.76       4.08       7.89
Zn      12.53       8.79       7.95
Zn       3.11      10.52       7.93
H       8.95       1.15       7.41
H       9.34       3.59      11.62
H       8.57       4.74      13.69
H      10.11       5.65      15.80
H      10.09       0.03       7.41
H       9.17       3.74       4.29
H       8.43       4.87       2.19
H       3.80       2.70      11.51
H       4.57       1.54      13.57
H       2.87       0.75      15.79
H       3.76       2.72       4.28
H       4.50       1.62       2.17
H       4.02       5.23       7.42
H       2.90       6.37       7.41
H       9.75       1.65      12.82
H      10.54       0.51      10.75
H       7.15       2.13      12.42
H       3.29       4.66      12.75
H       2.46       5.82      10.71
H       5.90       4.25      12.42
H       3.31       4.72       3.08
H       2.49       5.89       5.10
H       5.89       4.26       3.41
H       9.78       1.64       3.04
H      10.59       0.46       5.06
H       7.13       2.15       3.41
H      10.88       7.10       6.97
H      10.54      10.19      11.48
H       9.80      11.28      13.60
H      11.48      12.11       0.00
H      11.43       6.50       8.34
H      10.60      10.12       4.24
H       9.83      11.28       2.18
H       5.02       9.17      11.57
H       5.78       8.05      13.66
H       4.20       7.17      15.81
H       5.02       9.25       4.19
H       5.79       8.10       2.12
H       5.28      11.58       8.71
H       4.26      12.77       8.47
H      11.00       8.15      12.70
H      11.83       6.98      10.69
H       8.42       8.58      12.39
H       4.52      11.25      12.80
H       3.71      12.42      10.78
H       7.18      10.69      12.38
H       4.61      11.21       3.00
H       3.82      12.35       5.07
H       7.21      10.74       3.38
H      11.12       8.13       3.00
H      11.96       6.94       5.00
H       8.45       8.62       3.38
C      11.12       4.51       9.80
C      10.62       5.22      11.01
C       9.71       4.59      11.87
C       9.28       5.23      13.03
C      11.15       4.53       5.97
C      10.61       5.27       4.78
C       9.60       4.69       3.99
C       9.19       5.33       2.82
C       1.85       1.89       9.81
C       2.36       1.17      11.01
C       3.36       1.74      11.81
C       3.79       1.09      12.96
C       1.84       1.86       5.99
C       2.38       1.14       4.80
C       3.35       1.75       3.99
C       3.76       1.13       2.81
C       8.37       0.07      13.35
C       9.33       0.68      12.53
C       9.78       0.05      11.37
C       7.93       0.72      14.60
C       8.24       0.14       0.01
C       7.24       1.96      14.59
C       6.88       2.59       0.01
C       6.87       2.60      13.36
C       4.59       6.28      13.34
C       3.67       5.65      12.49
C       3.20       6.30      11.35
C       5.05       5.63      14.59
C       4.75       6.23      15.82
C       5.76       4.40      14.58
C       6.14       3.82       0.00
C       6.16       3.77      13.36
C       4.62       6.32       2.47
C       3.70       5.70       3.33
C       3.24       6.36       4.47
C       5.07       5.66       1.22
C       5.76       4.42       1.25
C       6.15       3.79       2.47
C       8.39       0.08       2.48
C       9.35       0.67       3.31
C       9.81       0.01       4.45
C       7.94       0.74       1.23
C       7.25       1.98       1.25
C       6.86       2.62       2.47
C      12.50      11.02       9.81
C      11.95      11.74      11.00
C      10.96      11.14      11.79
C      10.55      11.75      12.97
C      12.49      10.95       5.99
C      11.99      11.68       4.79
C      11.01      11.09       3.97
C      10.59      11.74       2.82
C       3.15       8.29       9.82
C       3.69       7.57      11.01
C       4.64       8.19      11.84
C       5.06       7.56      13.01
C       3.22       8.36       5.99
C       3.72       7.64       4.79
C       4.64       8.26       3.93
C       5.07       7.61       2.78
C       9.72       6.53      13.33
C      10.63       7.15      12.46
C      11.09       6.50      11.32
C       9.26       7.19      14.57
C       9.56       6.59      15.80
C       8.56       8.42      14.55
C       8.19       9.04      15.79
C       8.16       9.06      13.33
C       5.96      12.78      13.32
C       4.97      12.20      12.51
C       4.52      12.86      11.37
C       6.40      12.12      14.57
C       6.11      12.73      15.79
C       7.08      10.87      14.55
C       7.45      10.26      15.79
C       7.46      10.23      13.33
C       5.97      12.80       2.45
C       5.02      12.19       3.28
C       4.57      12.82       4.44
C       6.42      12.15       1.20
C       7.10      10.91       1.22
C       7.48      10.27       2.44
C       9.72       6.57       2.46
C      10.69       7.17       3.28
C      11.15       6.51       4.41
C       9.28       7.23       1.20
C       8.58       8.46       1.22
C       8.19       9.10       2.44
O      10.72       3.32       9.58
O       9.77       0.88       7.87
O      11.95       5.14       9.04
O      10.40       3.69       6.56
O      12.35       4.82       6.29
O       2.25       3.08       9.60
O       1.01       1.27       9.05
O       2.58       2.71       6.59
O       0.63       1.58       6.30
O       3.21       5.52       7.87
O      11.74      10.20       9.19
O      11.11       7.35       7.88
O      13.72      11.27       9.52
O      12.09       9.77       6.20
O      13.32      11.58       6.76
O       3.91       9.11       9.21
O       1.93       8.04       9.53
O       3.61       9.55       6.20
O       2.39       7.74       6.76
O       4.61      11.91       8.08
