164

Zn       9.08       8.05       8.79
Zn       6.03       8.22       8.91
H       8.60      14.53      11.49
H       6.43       1.05       8.59
H       9.04       2.14      11.84
H       6.53      15.10       7.76
H       9.41       6.98       4.64
H       5.44       7.89      12.92
H       6.21      13.20       6.35
H       6.35      11.58       6.93
H       8.85       5.73      11.20
H       9.26       4.50      12.32
H      14.31      12.27      11.64
H      -0.92      11.65      11.21
H      15.20      12.99      10.28
H      14.97      10.88       8.96
H      13.38      11.45       9.45
H      13.50       9.83      11.45
H      15.00       9.20      10.81
H       0.57       4.90       4.42
H       0.52       3.58       5.61
H      15.85       4.35       5.07
H      -0.33       5.18       7.36
H      -0.29       6.50       6.17
H       2.20       6.03       5.88
H       2.09       4.87       7.18
H      11.73      10.43      10.74
H      10.27       9.99       9.99
H       4.11       5.46       6.98
H       5.24       6.75       6.99
H       9.11       4.12       6.59
H      10.59       3.71       5.69
H      10.08       2.72       7.08
H      11.95       4.22       7.78
H      10.47       4.66       8.62
H      10.00       6.46       6.97
H      11.48       6.09       6.10
H       3.53      12.50      11.55
H       5.18      12.30      10.93
H       4.10      13.49      10.19
H       4.28      11.45       8.74
H       2.63      11.67       9.32
H       3.19      10.00      11.22
H       4.76       9.78      10.49
H      13.36       5.25       6.81
H      14.84       5.96       7.22
H      -0.06       9.55       9.86
H       1.26      10.49      10.35
H       5.90       2.77       7.05
H       6.25       4.39       7.29
H       8.87      12.30      12.23
H       8.65      10.93      11.25
H       3.16      15.70      12.84
H       4.41      14.51      13.23
H       4.05      15.81      14.38
H       6.17      16.31      13.11
H       6.57       0.54      12.76
H       4.34      16.32      10.65
H       5.55      15.08      11.00
H      12.66       0.85       8.05
H      12.21       2.20       9.11
H      13.52       1.09       9.59
H      11.38       0.59      10.85
H      10.23      16.20       9.86
H      10.26      -0.08       8.08
H       9.79       1.34       9.04
H       9.49       6.60       0.99
H      10.41       6.44       2.41
H       4.94       6.68      16.30
H       4.18       7.16      14.88
H       5.33       9.02       5.72
H       4.60       9.51       4.28
H      10.73       7.18      13.53
H      10.08       7.92      12.16
H       4.48       9.15       2.34
H       5.42       8.95       0.95
H      10.56       7.93      15.51
H       9.65       7.39      16.82
C       7.61       8.09      11.46
C       7.65       8.12       6.24
C       7.60      10.72       8.95
C       7.37       5.59       9.15
C       7.62      12.18       9.18
C       7.45       4.16       9.57
C       6.99      13.05       8.24
C       8.27       3.79      10.67
C       7.02      14.43       8.47
C       8.37       2.43      11.02
C       7.57      14.96       9.64
C       7.73       1.45      10.27
C       8.17      14.12      10.57
C       6.90       1.83       9.20
C       8.22      12.73      10.35
C       6.76       3.17       8.84
C       7.45      16.44       9.81
C       8.00      -0.01      10.42
C       8.54       7.25       2.69
C       6.19       7.44      14.89
C       8.58       7.40       4.07
C       6.32       7.76      13.54
C       7.55       8.05       4.76
C       7.58       7.88      12.93
C       6.44       8.61       4.09
C       8.77       7.70      13.68
C       6.41       8.52       2.68
C       8.65       7.44      15.06
C       7.45       7.84       1.98
C       7.38       7.29      15.67
C       7.43       7.83       0.58
C       7.31       7.07      17.06
C      13.30       8.73       9.61
C       2.03       6.92       7.78
C      11.89       8.78       9.55
C       3.42       7.18       7.84
C      11.81       7.03       7.97
C       3.13       8.94       9.38
C      13.21       6.95       7.93
C       1.74       8.77       9.35
C      13.96       7.82       8.78
C       1.17       7.72       8.55
C      15.38       7.75       8.73
C      -0.24       7.63       8.57
C      14.05       9.67      10.50
C      14.33      11.04       9.84
C      14.98      12.04      10.79
C       1.65       5.82       6.82
C       0.19       5.56       6.46
C       0.07       4.54       5.33
C      11.02       6.09       7.11
C      10.95       4.64       7.63
C      10.14       3.75       6.69
C       3.72      10.01      10.25
C       3.65      11.43       9.65
C       4.14      12.49      10.64
C       5.32      16.15      11.13
C       6.83      -0.52      12.63
C       4.15      15.57      13.31
C      10.13       0.29       9.11
C      11.50       0.26       9.81
C      12.53       1.15       9.11
N      11.17       7.93       8.77
N       3.95       8.14       8.64
N       6.34      12.57       7.13
N       9.01       4.73      11.36
N      11.19       9.68      10.32
N       4.26       6.47       7.01
N      13.85       6.11       7.04
N       0.91       9.56      10.14
N       5.97       3.52       7.73
N       8.86      11.92      11.28
N       9.49       6.50       2.00
N       4.95       7.33      15.52
N       5.47       9.35       4.77
N      10.06       7.86      13.18
N       5.42       9.16       1.95
N       9.81       7.31      15.82
O       8.69       7.79      10.84
O       6.57       7.93       6.91
O       6.55       8.52      10.89
O       8.79       8.33       6.77
O       8.65      10.04       9.22
O       6.26       6.20       9.27
O       6.52      10.19       8.49
O       8.45       6.11       8.70
