170

Zn       3.98       7.83       8.80
Zn      -2.05      27.67       9.30
Zn      19.89      29.07      11.52
Zn      18.68      27.94       8.80
Zn      19.89       9.61       0.80
Zn       3.98      23.26      17.30
Zn      18.67      12.51       0.31
Zn      -2.05      12.24       0.80
H      27.05      17.88      18.53
H       4.05      19.92      14.82
H      27.05       9.67      14.01
H       4.05      11.71      10.30
H      -1.50      15.78       2.93
H      18.12      16.20       2.16
H      -1.50      23.98       7.45
H      18.12      24.40       6.68
H      16.68       8.01       2.93
H      15.00      11.92       2.16
H       8.87       5.52       7.45
H       7.18       9.43       6.68
H       7.18      24.20      14.82
H       8.87      25.64      18.53
H      15.00      26.69      10.30
H      16.68      28.13      14.01
H       4.07      16.86      13.03
H      27.03      14.73      16.90
H       4.07      14.86      11.93
H      27.03      12.73      15.80
H      18.03      19.31       3.85
H      -1.41      18.87       4.65
H      18.03      21.31       4.96
H      -1.41      20.87       5.75
H      12.00      11.06       3.85
H      13.76       6.99       4.65
H      10.10      10.45       4.96
H      11.86       6.38       5.75
H      11.86      26.61      16.90
H      10.10      25.11      13.03
H      13.76      27.22      15.80
H      12.00      25.72      11.93
C       6.66       7.04       7.85
C      22.22      27.36      12.23
C      27.48       9.26      11.36
C      17.20      27.84      11.36
C       1.64       7.52       6.98
C      20.24      25.62       7.85
C       3.62      20.33      17.46
C      25.51      24.96      16.59
C      17.20      10.40       1.76
C      20.24      14.55       1.75
C      22.22       9.92       2.62
C       6.66      24.48      17.46
C       0.80       8.14       5.87
C      23.06       9.31       3.74
C      23.54       7.46       5.32
C       0.33       9.99       4.29
C      22.76       8.03       4.29
C       1.11       9.42       5.32
C      23.06      26.75      13.35
C       0.80      25.58      15.47
C      22.76      26.97      14.72
C       1.11      25.35      14.10
C      23.54      26.40      15.76
C       0.33      25.93      13.07
C      27.48      19.02      16.74
C      27.24      17.84      17.46
C      27.24      16.63      16.79
C      27.48      16.57      15.39
C       3.86      17.78      14.69
C       3.86      19.00      15.36
C      27.48      15.33      14.71
C      27.48      14.26      14.11
C      27.48      13.02      13.44
C      27.24      11.81      14.13
C      27.24      10.59      13.46
C      27.48      10.57      12.08
C       3.86      11.75      11.37
C       3.86      12.97      12.04
C      -3.62      15.86       2.48
C      -2.42      16.35       3.02
C      -2.42      17.56       3.69
C      -3.62      18.32       3.83
C      19.04      17.80       3.26
C      19.04      16.58       2.59
C      -3.62      19.55       4.51
C      20.24      20.63       5.10
C      20.24      21.86       5.78
C      -2.42      22.38       6.35
C      -2.42      23.59       7.02
C      20.24      24.31       7.13
C      19.04      23.83       6.58
C      19.04      22.62       5.91
C      15.96      10.00       2.48
C      15.86       8.72       3.02
C      14.70       8.35       3.69
C      13.62       9.26       3.83
C      13.75      10.56       3.26
C      14.91      10.93       2.59
C      12.44       8.88       4.51
C      11.42       8.56       5.10
C      10.24       8.18       5.78
C      10.11       6.89       6.35
C       8.95       6.52       7.02
C       7.91       7.44       7.13
C       8.00       8.72       6.59
C       9.16       9.09       5.92
C       7.91      24.88      16.74
C       8.00      24.66      15.36
C       9.16      25.03      14.69
C      10.24      25.63      15.39
C      10.11      25.84      16.79
C       8.95      25.47      17.46
C      11.42      26.00      14.71
C      12.44      26.33      14.11
C      13.62      26.70      13.43
C      13.75      26.49      12.04
C      14.91      26.86      11.37
C      15.96      27.45      12.08
C      15.86      27.67      13.46
C      14.70      27.30      14.13
Br      22.99       5.74       5.94
Br       0.87      11.70       3.67
Br      21.28       6.98       3.67
Br       2.58      10.46       5.94
Br      21.28      28.05      15.28
Br       2.58      24.28      13.55
Br      22.99      26.80      17.54
Br       0.87      25.53      11.29
O      -3.62      28.81       9.61
O       5.74       7.93       7.95
O      -1.31      27.12      11.03
O      27.23       8.22      12.06
O       6.61       5.85       8.31
O       3.88       9.29      10.11
O      21.23      28.09      12.56
O      18.12      28.40      12.06
O      25.17       6.38       7.42
O      17.25      27.59      10.11
O       2.63       8.19       7.42
O      -2.50      26.03       8.31
O      19.12      26.23       7.95
O      27.48      23.52      19.22
O      27.23      20.30      18.71
O       2.63      24.24      16.26
O      17.25      11.59       1.30
O       3.88      21.37      16.77
O      18.12       9.52       1.65
O      25.17      25.21      17.79
O      19.12      14.15       1.30
O      -1.31      11.07       2.19
O      -2.50      13.95       1.65
O      21.23       9.26       2.19
O       5.74      23.92      16.77
O       6.61      24.74      18.71
O       4.10      17.78      13.35
O      27.00      15.49      17.51
O       4.10      14.10      11.32
O      27.00      11.81      15.48
O      17.87      18.48       3.36
O      -1.25      18.01       4.22
O      17.87      22.17       5.39
O      -1.25      21.69       6.25
O      12.74      11.47       3.36
O      14.63       7.09       4.22
O       9.23      10.35       5.39
O      11.12       5.97       6.25
O      11.12      26.41      17.51
O       9.23      24.80      13.35
O      14.63      27.53      15.48
O      12.74      25.92      11.32
