244

Zn       7.79       9.10      15.62
Zn      27.41      10.88      18.28
Zn       9.33      11.93      15.79
Zn      25.88      11.80      15.60
Zn      18.60       7.28       8.88
Zn      17.06       4.48       8.69
Zn      18.74       5.49       6.21
Zn      20.28       4.60       8.86
Zn      16.61      16.42      22.53
Zn      18.15      15.53      25.18
Zn      16.46      18.21      25.21
Zn      14.93      15.41      25.02
Zn      18.13       5.17      32.11
Zn      14.94       5.04      31.92
Zn      25.40      20.02      31.94
Zn      18.61      17.63       1.96
H      12.85      10.74      13.35
H      13.55       5.66      11.15
H      24.37      12.36      21.15
H      19.66      14.95      19.64
H       7.63       7.49      21.17
H      16.65      19.81      19.65
H      25.36      15.48      13.15
H      29.60      18.62      11.33
H      18.78       8.88       3.33
H      18.56      14.25       4.84
H       4.06       2.78       6.84
H       4.75       2.66       1.31
H      18.66      11.86      27.65
H      14.42       8.72      29.47
H      31.15      16.58      27.47
H      21.65       3.98      29.67
H      23.26      11.21      13.76
H      21.64      11.03      13.22
H      22.77       5.11      10.90
H      23.87       4.97      12.20
H      20.29       9.37      10.72
H      21.17      10.74      11.26
H       6.23       7.09      13.59
H       5.87       6.04      12.28
H      11.95      13.42      17.03
H      13.57      13.84      17.41
H      12.44      13.71      23.77
H      11.34      12.45      23.39
H      14.92      15.51      19.90
H      14.03      15.54      18.43
H       9.24      12.00      20.90
H       9.61      12.80      22.38
H      17.06       4.58       3.58
H      16.17       4.61       2.10
H      11.37       1.07       4.58
H      11.74       1.87       6.06
H      14.08       2.49       0.71
H      15.70       2.92       1.09
H      14.57       2.79       7.45
H      13.47       1.53       7.07
H      18.16      20.30      27.04
H      10.24       3.99      27.58
H      23.84      18.02      29.91
H      23.47      16.97      28.60
H      12.32       4.45      30.08
H      10.70       4.27      29.54
H      20.64      16.04      27.21
H      21.75      15.90      28.52
C       7.74       7.93      18.34
C      10.19      12.45      18.60
C      10.41       9.60      14.32
C      27.46      13.93      14.31
C      25.02       9.40      14.05
C      24.80      12.26      18.32
C      15.98       6.80      10.17
C      16.21       3.93       5.88
C      18.67       8.44       6.16
C      21.36       4.12       6.16
C      21.13       6.99      10.44
C      18.68       2.48      10.16
C      19.22      15.05      22.47
C      19.00      17.92      26.76
C      16.54      19.37      22.48
C      13.85      17.73      26.49
C      14.08      14.86      22.20
C      16.55      13.41      26.47
C      16.53       7.17      30.63
C      22.88      20.33      30.37
C      28.01      20.53      30.65
C      18.68      14.68       2.02
C      12.33       1.53       2.28
C       7.19       1.33       1.99
C      24.03       8.79      13.13
C      22.12       7.60      11.35
C      22.89       9.53      12.69
C      23.24       6.86      11.81
C      21.96       8.96      11.79
C      24.20       7.45      12.67
C      11.18      13.06      19.51
C      13.10      14.25      21.29
C      12.32      13.75      19.00
C      11.97      13.54      21.80
C      13.25      14.36      19.87
C      11.01      12.97      20.93
C      12.64       9.70      13.09
C      13.75       6.69      11.40
C      11.50       9.05      13.51
C      14.89       7.35      10.99
C      12.92       7.55      12.17
C      13.46       8.85      12.33
C      23.60      12.80      20.51
C      20.42      14.51      20.28
C      23.71      12.81      19.13
C      20.32      14.50      21.66
C      21.61      13.89      19.86
C      22.41      13.42      20.93
C       7.68       6.61      20.53
C       7.79       3.00      20.29
C       7.74       6.70      19.15
C       7.74       2.91      21.67
C       7.78       4.35      19.87
C       7.70       5.27      20.95
C      26.37      15.82      12.99
C      28.58      18.28      11.49
C      27.47      15.15      13.50
C      27.48      18.94      10.97
C      28.18      17.14      12.22
C      26.78      16.95      12.25
C      15.23       3.32       4.97
C      13.31       2.14       3.19
C      15.38       3.43       3.55
C      13.14       2.05       4.61
C      14.45       2.83       2.68
C      14.10       2.61       5.48
C      18.73       9.76       3.97
C      18.62      13.37       4.21
C      18.67       9.67       5.35
C      18.68      13.46       2.83
C      18.64      12.02       4.62
C      18.71      11.10       3.55
C       3.85       2.93       5.79
C       4.95       2.50       2.36
C       2.71       3.57       5.34
C       6.10       1.87       2.81
C       4.14       2.89       3.44
C       4.67       2.55       4.71
C      19.98      18.53      27.67
C      21.90      19.72      29.45
C      19.83      19.88      28.11
C      22.07      18.38      28.99
C      20.76      20.46      29.01
C      21.11      17.78      28.13
C      17.64      11.52      27.81
C      15.44       9.06      29.30
C      16.54      12.18      27.29
C      16.54       8.40      29.82
C      15.84      10.20      28.57
C      17.24      10.38      28.54
C      31.35      17.62      27.72
C      30.25      20.63      29.42
C      32.50      18.28      27.31
C      29.10      19.97      29.83
C      31.07      19.78      28.65
C      30.53      18.48      28.49
S      11.41       7.40      12.96
S      14.98       9.00      11.52
S      22.35      13.56      18.34
S      21.66      13.74      22.45
S       7.82       5.16      18.35
S       7.67       4.46      22.47
S      28.99      15.90      13.10
S      25.96      18.19      11.36
S      18.60      11.21       6.14
S      18.76      11.91       2.03
S       2.62       3.70       3.60
S       6.19       1.75       4.55
S      15.03      11.43      27.68
S      18.06       9.14      29.42
S      32.58      19.93      27.84
S      29.01      18.32      29.29
N      22.63      10.85      13.05
N      23.51       5.54      11.44
N      20.90       9.78      11.43
N       5.52       6.62      13.04
N      12.58      13.93      17.64
N      11.70      13.37      23.16
N      14.31      15.02      19.25
N       9.95      12.32      21.55
N      16.45       4.08       2.93
N      12.08       1.39       5.23
N      14.72       3.00       1.32
N      13.83       2.45       6.84
N      18.77      20.70      27.75
N      23.12      17.55      29.36
N      11.69       4.09      29.37
N      21.38      16.47      27.76
O      27.47      10.93      16.32
O       7.83       7.77      17.07
O       9.23      11.75      19.09
O      10.56      10.79      14.75
O       7.64       9.04      18.97
O       9.41       8.83      14.53
O      10.32      12.64      17.33
O       8.87      13.47      14.66
O      24.89      10.65      14.36
O      26.32      13.44      14.60
O      25.97       8.67      14.51
O      25.80      11.77      18.96
O      24.66      12.32      17.05
O      18.67       5.46       8.16
O      16.93       7.61       9.88
O      15.99       3.91       7.16
O      18.66       7.33       5.52
O      15.88       5.57       9.82
O      18.69       8.60       7.43
O      17.27       4.48       5.39
O      20.41       4.70       5.53
O      21.35       5.81       9.97
O      21.46       3.97       7.42
O      20.07       7.66      10.13
O      17.54       2.88       9.73
O      19.82       3.03       9.95
O      16.54      16.39      24.48
O      18.27      15.63      21.83
O      19.22      16.74      26.29
O      16.55      19.53      23.75
O      19.32      14.90      23.73
O      16.53      18.26      21.84
O      17.94      18.58      26.45
O      14.80      18.53      26.20
O      13.86      14.84      23.48
O      13.75      16.50      26.15
O      15.14      15.41      21.71
O      17.69      13.96      26.27
O      15.41      13.80      26.05
O      18.67      17.68       0.00
O      17.67       6.71      30.98
O      22.76      21.57      30.68
O      27.01      19.75      30.85
O      15.38       6.68      30.93
O      19.36       4.04      31.07
O      23.84      19.60      30.83
O      18.77      14.53       0.75
O      11.36       0.82       2.77
O      18.58      15.79       2.65
O      12.45       1.71       1.00
O       7.04       1.40       0.72
O       8.19       0.84       2.63
