126

In       4.89       9.60       3.99
In       2.19       8.74       6.32
In      -0.50       7.16       4.41
In      -2.19      -1.10      10.72
In       0.51      -0.23       8.40
In       3.20       1.34      10.31
H      -2.34      -2.88      12.69
H       0.36      -1.05       5.88
H       3.05       3.94      10.87
H       5.05      11.38       2.03
H       2.34       9.56       8.84
H      -0.35       4.56       3.85
H       4.67      -3.45      11.49
H      -0.72       0.27       5.97
H       1.97       3.19      11.96
H      -1.97      11.95       3.22
H       3.42       8.23       8.74
H       0.73       5.31       2.75
H      -0.97       9.40       5.61
H       4.43       7.43       5.34
H       1.73       8.65       3.77
H       3.67      -0.90       9.11
H      -1.73       1.07       9.38
H       0.97      -0.15      10.95
H       3.60       7.32       0.56
H       0.90      12.84       6.07
H      -1.80       5.32       8.09
H      -0.90       1.18      14.16
H       1.80      -4.34       8.65
H       4.50       3.18       6.63
H       2.29      -2.50      11.42
H       4.99      -0.14       6.84
H      -0.41       2.65      11.18
H       0.41      11.01       3.30
H      -2.29       8.64       7.88
H       3.11       5.85       3.53
H      -2.99      -1.88      14.64
H      -0.30      -3.24       5.76
H       2.40       5.13       9.03
H       5.69      10.38       0.08
H       3.00      11.74       8.96
H       0.30       3.37       5.68
C       6.02       7.50       1.76
C       3.32      11.72       5.61
C       0.62       6.28       7.34
C      -3.32       1.00      12.96
C      -0.62      -3.22       9.11
C       2.08       2.23       7.37
C       5.73       7.04       0.37
C       3.03      13.15       5.91
C       0.33       5.30       8.44
C      -3.03       1.46      14.35
C      -0.33      -4.65       8.81
C       2.37       3.20       6.28
C       1.71      -1.46      14.62
C       4.41      -3.43       6.14
C      -0.99       4.90       8.68
C       0.99       9.97       0.10
C      -1.71      11.93       8.58
C       3.69       3.60       6.04
C       1.45      -1.86      13.30
C       4.15      -2.09       6.45
C      -1.25       3.96       9.68
C       1.25      10.36       1.41
C      -1.45      10.59       8.27
C       3.95       4.54       5.04
C       0.03      -1.92      12.83
C       2.73      -1.65       6.64
C      -2.67       3.58       9.97
C       2.67      10.42       1.89
C      -0.03      10.15       8.08
C       5.37       4.93       4.75
C       2.50      -2.24      12.46
C       5.20      -1.17       6.55
C      -0.20       3.42      10.43
C       0.20      10.74       2.26
C      -2.50       9.67       8.17
C       2.90       5.09       4.29
C       3.81      -2.27      12.95
C       6.51      -1.58       6.27
C       1.11       3.86      10.22
C      -1.11      10.77       1.77
C      -3.81      10.08       8.45
C       1.59       4.64       4.50
C       4.08      -1.88      14.26
C       6.77      -2.91       5.95
C       1.37       4.80       9.22
C      -1.38      10.38       0.45
C      -4.07      11.41       8.77
C       1.33       3.70       5.50
N       4.90      -2.67      12.12
N      -0.49      -0.66       6.34
N       2.20       3.34      10.98
N      -2.20      11.17       2.60
N       3.19       9.16       8.38
N       0.50       5.16       3.74
O       5.08       8.11       2.37
O       2.39      10.88       5.84
O      -0.31       6.49       6.51
O      -2.38       0.39      12.35
O       0.31      -2.38       8.87
O       3.02       2.01       8.21
O      -0.92       7.23       2.24
O       4.48      11.44       5.14
O       1.77       6.83       7.34
O       3.62       1.27      12.48
O      -1.78      -2.93       9.58
O       0.93       1.67       7.38
O      -0.19      -1.36      11.67
O       2.51      -0.93       7.70
O      -2.89       2.30      10.07
O       2.89       9.86       3.05
O       0.20       9.43       7.02
O       5.59       6.21       4.65
O      -0.83      -2.49      13.54
O       1.87      -1.98       5.79
O       4.57       4.48      10.11
O       3.53      10.99       1.18
O       0.83      10.48       8.93
O      -1.86       4.02       4.61
O      -1.25       9.12       4.70
O       4.14       8.36       5.55
O       1.45       8.01       4.47
O       3.95      -0.62      10.01
O      -1.44       0.14       9.17
O       1.26       0.49      10.25
