58

Al       6.61       5.73       7.37
Al      10.03       5.77       7.39
H       4.92       6.65       5.87
H       8.31       5.03       8.97
H       3.79       5.54       0.95
H       9.50       6.34      13.88
H       6.87       5.32      11.47
H       6.83       5.18      13.95
H       6.36       4.68       3.32
H       6.43       4.53       0.84
H      10.28       8.51       9.17
H       6.93       2.92       9.23
H       3.04       1.74       6.63
H       6.43       9.80       6.58
C       8.28       8.14       7.44
C       8.34       5.37       5.01
C       4.90       3.36       7.56
C       4.89       5.95       9.78
C       8.41       5.18       3.53
C       4.83       5.87      11.28
C       2.77       5.35       2.82
C       2.84       5.35       1.44
C      10.49       6.09      12.00
C      10.44       6.10      13.38
C       5.97       5.56      12.02
C       5.93       5.50      13.41
C       7.28       4.89       2.77
C       7.32       4.82       1.39
C       8.51       5.10       0.69
C       4.76       5.81      14.12
C       8.26       9.62       7.66
C       9.29      10.30       8.40
C       7.22      10.34       7.09
C      10.26       9.60       9.16
C      11.18      10.28       9.91
C       4.88       1.87       7.71
C       3.84       1.18       7.11
C       5.91       1.17       8.42
C       6.89       1.84       9.20
C       7.80       1.12       9.93
N       4.05       5.44       3.54
N       9.20       6.18      11.30
O       7.14       7.57       7.37
O       9.45       5.46       5.61
O       3.77       3.95       7.59
O       6.02       5.83       9.23
O       6.04       3.91       7.41
O       3.78       6.15       9.19
O       9.41       7.59       7.30
O       7.19       5.46       5.54
O       4.90       6.27       6.76
O       8.32       5.25       8.02
O       4.52       4.35       3.90
O       4.58       6.55       3.68
O       8.76       5.08      10.90
O       8.61       7.26      11.23
F       5.25       9.61      10.66
F       8.72       1.76      10.70
