130

Zn      20.34      13.02      16.90
Zn      20.25       1.92       0.53
Zn      11.21      17.51       0.53
Zn      28.18      17.57       0.37
Zn      10.25       6.51      11.30
Zn      10.19       4.68       8.65
Zn      11.86       7.42       8.68
Zn       8.69       7.54       8.71
H      10.54      -0.28      16.69
H      10.80      -2.09      14.20
H      10.79      -1.06      12.07
H      10.63       0.95      10.59
H      10.28       3.47      14.06
H      10.41       1.48      15.54
H       4.48      10.13      16.74
H       3.18      11.41      14.26
H       5.56       8.70      15.51
H       7.26       7.61      14.07
H       6.11      10.11      10.77
H       4.43      11.26      12.22
H      16.39       9.85      16.46
H      17.21      11.67      14.11
H      16.19      11.20      11.99
H      14.49      10.03      10.59
H      12.97       8.04      14.08
H      14.66       9.18      15.48
H       4.28       1.14       3.42
H       3.03       3.94       3.08
H       3.89       5.68       4.48
H       5.57       6.56       6.11
H       7.54       2.75       6.14
H       5.89       1.86       4.53
H      15.59       1.36       2.57
H      17.57       3.56       3.43
H      16.86       5.14       5.04
H      15.20       6.01       6.69
H      12.51       2.83       5.67
H      14.14       1.95       4.02
H       8.41      14.42       3.44
H      11.38      13.92       2.83
H      12.45      12.11       3.93
H      12.45      10.20       5.55
H       8.29      10.89       6.35
H       8.28      12.79       4.76
C      10.72      -2.44      16.86
C      10.64      -1.18      16.08
C      10.69      -1.14      14.73
C      10.61       0.06      13.91
C      10.68      -0.06      12.50
C      10.59       1.05      11.68
C      10.45       2.33      12.24
C      10.39       2.47      13.64
C      10.47       1.35      14.46
C      10.35       3.54      11.37
C       2.75      11.43      16.90
C       3.78      10.71      16.13
C       3.89      10.77      14.79
C       4.88      10.08      13.98
C       5.69       9.04      14.48
C       6.63       8.41      13.68
C       6.79       8.80      12.34
C       5.98       9.82      11.82
C       5.05      10.45      12.63
C       7.78       8.11      11.47
C      17.95      11.32      16.69
C      16.93      10.61      15.90
C      16.62      10.90      14.61
C      15.58      10.25      13.83
C      15.49      10.50      12.45
C      14.54       9.85      11.66
C      13.64       8.95      12.25
C      13.69       8.73      13.63
C      14.64       9.37      14.41
C      12.65       8.22      11.40
C       2.59       1.46       2.11
C       3.62       1.93       3.06
C       3.74       3.21       3.47
C       4.75       3.70       4.40
C       4.69       5.04       4.85
C       5.62       5.53       5.76
C       6.65       4.71       6.23
C       6.73       3.38       5.78
C       5.80       2.89       4.88
C       7.65       5.22       7.21
C      17.59       1.51       1.74
C      16.49       1.97       2.61
C      16.62       3.02       3.45
C      15.62       3.49       4.40
C      15.90       4.63       5.18
C      14.98       5.12       6.10
C      13.76       4.47       6.28
C      13.46       3.33       5.52
C      14.38       2.84       4.60
C      12.76       5.01       7.25
C       9.52      15.66       2.06
C       9.40      14.54       3.01
C      10.42      13.72       3.32
C      10.37      12.59       4.24
C      11.54      11.84       4.46
C      11.55      10.78       5.36
C      10.37      10.44       6.05
C       9.20      11.17       5.81
C       9.20      12.23       4.92
C      10.36       9.32       7.03
O      -9.33      -5.40      18.86
O      10.67      -2.29      18.13
O      10.83      -3.54      16.22
O      10.30       3.36      10.11
O      10.33       4.67      11.97
O       2.85      11.33      18.17
O       1.85      12.08      16.25
O       7.71       8.35      10.21
O       8.63       7.35      12.04
O      17.92      11.06      17.94
O      18.75      12.13      16.11
O      12.76       8.36      10.14
O      11.79       7.50      12.01
O       2.69       0.22       1.79
O       1.72       2.29       1.67
O       7.51       6.43       7.60
O       8.57       4.41       7.58
O      17.35       0.43       1.09
O      18.67       2.19       1.69
O      13.06       6.11       7.84
O      11.68       4.35       7.41
O       8.43      16.29       1.82
O      10.67      15.91       1.55
O      11.47       8.73       7.27
O       9.24       9.04       7.57
O      10.24       6.52       9.34
