189

Al      11.38       6.66      14.18
Al       8.17       6.55      14.25
Al       9.66       3.95      14.25
Al       1.79       0.96      28.42
Al       3.44       3.73      28.48
Al       5.01       1.17      28.45
H       7.86       4.98       5.86
H      14.07       5.39       6.04
H      11.18       8.07       5.79
H       6.06       6.08       7.76
H      11.11       7.84       8.09
H       3.64       0.15       8.61
H      11.33      10.19       8.51
H      11.44      10.56       6.20
H       3.74       0.51       6.30
H       7.36       8.58       8.08
H       7.62      10.30       8.31
H      13.59       1.74       8.54
H       7.54       8.82       5.75
H       9.56       7.38       5.63
H       8.48       2.89       7.69
H       7.67      10.56       5.98
H       8.16       2.56      22.63
H       8.51       2.82      20.33
H       4.81       3.05      19.90
H       6.17       1.93      20.07
H       5.76       1.84      22.36
H       4.49       3.05      22.22
H       1.23       1.64       6.21
H       6.83       6.18      20.34
H       5.19       5.54      20.18
H       6.71       6.02      22.67
H       6.41       1.34       6.57
H       8.79       4.55      20.54
H       8.56       4.27      22.85
H       5.03       5.51      22.52
H      13.16       5.95      22.56
H      12.78       6.00      20.24
H       1.86       2.70      19.86
H       2.36       2.99       6.27
H      14.72       4.45      19.86
H      15.11       4.39      22.18
H       2.24       2.65      22.17
H      10.79       2.82      20.49
H       4.60       2.43       8.47
H      12.16       1.75      20.24
H      11.16       2.79      22.80
H      11.15       5.36      20.50
H      11.54       5.30      22.82
H      12.53       1.70      22.56
H      12.11       5.76       8.18
H       8.01       8.74      22.84
H       7.72       8.50      20.52
H       3.82       0.21      19.83
H       8.38      10.90      19.99
H       8.50      11.14      22.32
H       3.98       4.53       6.65
H       3.88       0.61      22.13
H      11.41       7.84      20.25
H      11.86       9.52      19.93
H      11.62       8.21      22.54
H      13.83       5.46       8.38
H       8.94       7.22      20.53
H       9.30       7.54      22.83
H      11.38       2.04       5.87
H      11.11       2.13       8.21
H       2.09       3.12       8.60
H       8.33       6.62       7.71
H       9.86       5.76       7.47
H       9.42       6.35       9.09
H      12.34       5.65       5.85
H      10.49       3.77       8.07
H      10.76       3.69       5.74
H      13.12       8.06      14.88
H      18.44      10.70       0.74
C       9.47       8.05      12.32
C       6.76       4.03       9.90
C      11.33       3.12       7.79
C       7.54       4.48      12.39
C      13.79       2.74       8.11
C      13.96       2.66       6.58
C      13.30       3.36       3.24
C      12.61       3.68       8.46
C      11.50       3.06       6.25
C      12.92       3.56       5.87
C      13.09       5.02       6.36
C       7.03       4.18      11.08
C      12.92       5.09       7.89
C      13.11       3.47       4.43
C      12.40       3.77       9.89
C      11.65       4.27      12.37
C      12.15       3.91      11.07
C      10.09       7.90       7.70
C      10.33      10.37       8.09
C      10.40      10.61       6.56
C       9.68      10.00       3.19
C       9.44       9.14       8.39
C       4.98       4.16       6.89
C      10.15       8.15       6.17
C       9.58       9.54       5.81
C       8.10       9.60       6.28
C       8.03       9.41       7.82
C       9.51       8.09      16.11
C       9.65       9.77       4.38
C       9.38       8.90       9.82
C       9.38       8.63      11.00
C       8.09       3.73      20.77
C       5.75       2.88      20.44
C       5.98       3.55       5.82
C       5.53       2.83      21.97
C       6.04       3.59      25.31
C       6.73       4.03      20.08
C       7.91       3.58      22.30
C       6.44       3.87      22.69
C       7.58       4.45      16.11
C       6.06       5.29      22.19
C       6.17       5.36      20.65
C       6.24       3.74      24.12
C       6.93       4.12      18.65
C       5.32       3.00       7.87
C       7.12       4.21      17.45
C      12.21       5.19      20.73
C      14.16       3.64      20.34
C      14.41       3.60      21.87
C      13.62       3.64      25.25
C      12.65       3.85      20.07
C      11.64       4.38      16.15
C      12.47       5.16      22.25
C      13.08       3.79      22.65
C      12.10       2.66      22.24
C       6.49       3.87       8.51
C      11.85       2.69      20.72
C      13.36       3.74      24.07
C      12.38       3.92      18.65
C      12.11       4.05      17.47
C       8.75       8.27      20.82
C       9.39      10.66      20.37
C       9.48      10.88      21.89
C       6.14       5.03       7.49
C      10.07      10.16      25.21
C       9.71       9.18      20.04
C       6.33       2.39       6.85
C       8.95       8.47      22.34
C       9.97       9.60      22.61
C      11.31       9.13      22.01
C      11.16       8.88      20.49
C      10.06       9.87      24.03
C       9.59       8.92      18.62
C       9.52       8.65      17.44
C      13.72       3.06       1.90
C       7.14       4.42       6.46
C       5.13       3.06       1.88
C       7.48       3.26       7.44
C       9.63      10.51       1.85
C      14.10       3.33      26.57
C       5.58       3.27      26.63
C       9.99      10.73      26.53
C       5.57       3.30       3.23
C       9.38       6.58       8.02
C       5.75       3.41       4.43
Cl      12.65      10.29      22.35
O      12.00       5.38      12.84
O       5.54       1.99       1.31
O      10.77      10.79       1.30
O      10.62       7.69      12.69
O       8.84      11.01      26.96
O      13.77       2.21      27.05
O      14.87       4.20      27.13
O       4.78       4.11      27.19
O       5.94       2.15      27.13
O      11.11      10.97      27.13
O       3.43       1.96      28.46
O       7.21       5.54      15.55
O       8.37       7.88      12.97
O       7.22       5.61      12.89
O       8.31       3.62      12.94
O      10.84       3.43      12.92
O      11.94       5.53      15.71
O      10.63       7.88      15.56
O       8.35       7.79      15.62
O       8.38       3.59      15.60
O      10.91       3.50      15.56
O       9.72       5.71      14.23
O       8.49      10.72       1.35
O      13.42       1.91       1.44
O      14.41       3.96       1.29
O       4.32       3.91       1.36
O      12.90       7.52      14.11
O       6.58      11.14      28.37
