52

Cu       4.07       6.86       6.86
Si       0.00       6.86       6.86
H       1.99       8.99       6.86
H       1.91      11.48       6.86
H       6.24      11.48       6.86
H       6.15       8.99       6.86
H       1.91       2.24       6.86
H       1.99       4.73       6.86
H       6.15       4.73       6.86
H       6.24       2.24       6.86
H       1.99       6.86       8.99
H       1.91       6.86      11.48
H       6.24       6.86      11.48
H       6.15       6.86       8.99
H       1.91       6.86       2.24
H       1.99       6.86       4.73
H       6.15       6.86       4.73
H       6.24       6.86       2.24
C       2.91       9.58       6.86
C       2.87      10.97       6.86
C       4.07      11.70       6.86
C       5.28      10.97       6.86
C       5.24       9.58       6.86
C       4.07      13.11       6.86
C       4.07       0.61       6.86
C       4.07       2.02       6.86
C       2.87       2.75       6.86
C       2.91       4.14       6.86
C       5.24       4.14       6.86
C       5.28       2.75       6.86
C       2.91       6.86       9.58
C       2.87       6.86      10.97
C       4.07       6.86      11.70
C       5.28       6.86      10.97
C       5.24       6.86       9.58
C       4.07       6.86      13.11
C       4.07       6.86       0.61
C       4.07       6.86       2.02
C       2.87       6.86       2.75
C       2.91       6.86       4.14
C       5.24       6.86       4.14
C       5.28       6.86       2.75
N       4.07       8.90       6.86
N       4.07       4.82       6.86
N       4.07       6.86       8.90
N       4.07       6.86       4.82
F       1.74       6.86       6.86
F       6.40       6.86       6.86
F       0.00       8.07       5.65
F       0.00       5.65       8.07
F       0.00       8.07       8.07
F       0.00       5.65       5.65
