76

Al       0.06       0.01       9.66
Al       3.19      15.33       9.64
Al       6.58       7.68       0.01
Al       3.23       7.66      19.29
H       1.75       1.77       9.61
H       4.90      13.57       9.62
H       1.51       5.90       0.04
H       4.88       9.43       0.03
C       5.10       1.57      11.48
C       5.15       1.57       7.83
C       1.52      13.77       7.83
C       1.48      13.77      11.47
C       4.94       6.11      17.48
C       4.87       6.10       1.82
C       1.51       9.23       1.82
C       1.56       9.24      17.48
C       6.13       3.15       6.04
C       3.89       4.52       3.61
C       5.11       2.45       6.65
C       4.92       5.22       3.00
C       4.32       3.76       4.72
C       5.70       3.91       4.93
C       2.56      12.16      13.17
C       0.49      10.85      15.78
C       1.51      12.89      12.65
C       1.54      10.12      16.31
C       0.84      11.60      14.64
C       2.20      11.41      14.32
C       0.46      12.16       6.11
C       2.57      10.85       3.54
C       1.50      12.89       6.65
C       1.52      10.11       3.00
C       2.19      11.60       4.67
C       0.83      11.41       4.98
C       6.11       3.19      13.21
C       3.93       4.48      15.74
C       5.08       2.45      12.65
C       4.96       5.23      16.30
C       4.34       3.74      14.61
C       5.70       3.94      14.34
S       3.57       2.73       5.88
S       6.45       4.94       3.77
S       0.04      12.66      13.55
S       3.01      10.35      15.40
S       2.98      12.67       5.77
S       0.04      10.34       3.88
S       3.58       2.66      13.50
S       6.46       5.01      15.45
O       6.23       1.32      10.94
O       4.02       1.28       8.35
O       2.67      14.19       8.18
O       0.33      14.21      11.13
O       0.40      14.02       8.39
O       2.60      14.01      10.90
O       3.96       1.13      11.10
O       6.30       1.18       8.22
O       1.75       0.80       9.65
O       4.89      14.54       9.65
O       6.08       6.54      17.85
O       3.72       6.49       1.43
O       2.62       8.98       1.26
O       0.45       9.00      18.05
O       0.35       8.81       1.47
O       2.71       8.80      17.82
O       3.81       6.35      18.01
O       6.00       6.38       1.30
O       1.53       6.87      19.30
O       4.89       8.46       0.00
F       0.65       3.14       6.45
F       2.61       4.53       3.20
F       3.80      12.13      12.66
F       6.00      10.88      16.29
F       5.96      12.12       6.61
F       3.81      10.88       3.04
F       0.61       3.23      12.74
F       2.68       4.44      16.21
