234

Ni      13.59       4.58      14.93
Ni       5.65       9.49      14.93
Ni       5.36       0.16       4.02
Ni       5.67       9.49       4.02
Ni       5.37       0.16      14.93
Ni      13.59       4.56       4.02
H      20.08       9.90       6.03
H      20.23       8.57      17.35
H       7.72       9.06       6.01
H      20.27      10.63      10.46
H      22.13      13.99       4.23
H      13.10      12.32      16.95
H       5.80       4.08       4.67
H      14.20      12.44       6.03
H       6.93       1.50       1.62
H      14.97       6.16       8.52
H      11.70       3.41      10.47
H      21.40      11.48       2.01
H      15.35       5.58      12.95
H       7.85       9.08       8.48
H       6.04       7.45       1.61
H       7.35      10.73       1.65
H      12.20       2.99       6.00
H       7.40       0.72      16.93
H       5.25       2.27      12.94
H      11.73      13.39      17.28
H       4.71       2.20       1.99
H      17.46       2.26       4.23
H       7.75       9.03       1.99
H       4.70       2.15       6.01
H      11.82       3.42      12.94
H      15.66      14.07       2.04
H       4.61       2.25       8.48
H      12.79       6.53       2.03
H      20.52      10.92      16.95
H       3.82       1.62      16.93
H      20.17      10.25       1.69
H      13.82       2.48       1.65
H       8.84       7.14       4.67
H      13.48      12.25      10.46
H      14.01      10.15      14.98
H      15.20       5.82       1.69
H       5.82       4.03      14.37
H       9.66      12.19      14.67
H      22.14      11.57      17.28
H      12.15       2.87       8.48
H      15.28      13.24      17.35
H       7.41       8.37      17.24
H      10.01       3.03      14.37
H      17.03       7.07      14.98
H      16.97       7.05       3.84
H       5.30       2.37      10.47
H       7.61       8.43      10.47
H      13.56      12.34      12.95
H      12.09       6.06      16.93
H      13.71       6.62      17.35
H      14.03      10.20       3.84
H       8.78       7.16      14.37
H      14.26      12.37       8.52
H       5.45       2.24      17.24
H       5.11       7.45      16.93
H      20.31      10.51      12.95
H      12.15       2.98       1.99
H       7.54       8.53      12.94
H      17.42       2.28      14.66
H      13.84      12.34       1.69
H      22.13      13.96      14.67
H      14.94       6.08       6.03
H      18.18      11.22      14.98
H      19.99       9.89       8.52
H      18.22      11.17       3.85
H      15.60       5.20      16.94
H      15.35       3.47      17.28
H       9.63      12.17       4.24
H       3.44       1.01       1.66
H       9.97       2.98       4.68
H      11.75       3.61      17.24
H      20.77       7.81       2.03
H      15.47       5.56      10.46
H      12.16      12.80       2.01
H      13.09       2.50      16.92
H      11.64       5.25       1.61
H      15.65       4.14       2.01
H       7.70      10.09      16.93
C       9.22       3.78      14.38
C      23.22      14.07      14.65
C       7.48       1.92       4.78
C      21.46      10.74      17.48
C       9.55       5.11       4.67
C      13.58       4.50      10.22
C      15.07       9.89       3.87
C       6.09       6.73      14.21
C       8.55       6.09       4.66
C       6.74       0.06      17.50
C      13.53      13.24      12.34
C       7.54       1.92      14.21
C       7.06       9.39      17.47
C       7.06       9.69       1.46
C      15.80      12.32       3.76
C       9.03      13.08      14.65
C       7.88       3.38      14.37
C      17.75       9.09      14.95
C      16.07      10.84      14.95
C       9.20       3.75       4.67
C       7.18       5.70      14.37
C       1.39       0.12       4.24
C      14.97       4.47      17.48
C      14.61       5.10      10.95
C      10.98       5.57      14.20
C      23.21      14.08       4.24
C       7.85       3.38       4.67
C      21.10      10.12      10.95
C       7.01      11.58       4.19
C       5.29       1.40      10.96
C       2.87       0.33      14.72
C       5.23       8.17       1.46
C      15.38       8.52       3.87
C      12.78       3.62       8.00
C      14.69       2.32      14.72
C      16.97       1.28      14.65
C      14.35       5.42       8.02
C       9.01      13.06       4.25
C      17.43      10.42       3.87
C       9.54       5.15      14.37
C      12.79       3.67       6.61
C      15.75      12.31      15.05
C       7.61      12.94       4.24
C       4.98       1.29       6.61
C       7.05      11.56      14.72
C       6.83       9.24       6.61
C       4.88       8.35      17.50
C       5.32       0.20       8.75
C      12.59       3.90      12.34
C      17.41      10.45      14.95
C      15.58       1.14      14.65
C       4.48       1.27       1.46
C      19.17       8.57       3.76
C      19.19       8.63      15.05
C       7.21       5.71       4.67
C      16.74       8.12      14.95
C       5.31       0.20      10.22
C      13.57       4.51       8.74
C      20.95       9.73       8.02
C      14.72       2.34       4.18
C      14.28       7.49      15.05
C      21.11      10.08      12.34
C       5.72       9.50       8.75
C      12.79      13.22      17.48
C      12.80       3.41      17.46
C       6.74       8.95      12.34
C       6.72       0.44       1.46
C      13.91      13.29       6.63
C      11.00       5.52       4.78
C      13.07       3.25       1.46
C       4.75       1.42      17.47
C       1.39       0.15      14.65
C       6.77       8.93      10.96
C      14.58       5.11      12.34
C      16.99       1.27       4.24
C       5.29       1.36      12.34
C      12.99       5.82      17.50
C      12.66       5.60       1.46
C       2.87       0.28       4.19
C      13.51      13.22      10.96
C       4.95       1.33       8.00
C       6.89       9.26       8.00
C       5.73       9.51      10.22
C      14.34       5.40       6.63
C       8.52       6.10      14.38
C      20.96       9.72       6.63
C      15.06       9.86      14.95
C      12.55       3.88      10.96
C      14.94       4.78       1.47
C      15.60       1.14       4.24
C       7.63      12.93      14.66
C      14.24       7.53       3.75
C      21.20      10.55       1.47
C      13.92      13.28       8.02
C      16.71       8.11       3.87
C      16.10      10.84       3.87
C      15.40       8.50      14.95
C       6.85       4.36       4.67
C      17.75       9.06       3.87
C      13.07      13.09       1.47
C       6.86       4.34      14.38
C       6.13       6.76       4.78
N       5.34       0.20      13.02
N       5.36       0.17      16.94
N       5.71       9.49      13.02
N       5.35       0.18       5.95
N       5.35       0.19       2.01
N      13.57       4.54       2.00
N      13.59       4.56      16.94
N      13.57       4.54       5.95
N      13.57       4.53      13.01
N       5.69       9.48       5.95
N       5.69       9.48       2.01
N       5.66       9.49      16.94
O      11.30       6.39      13.35
O       3.39       1.48      14.71
O      15.27       3.52       4.09
O       6.48       1.65       3.96
O       3.40       1.43       4.19
O      14.55      12.61       3.99
O       6.39       7.77       3.96
O      13.11       7.91       3.42
O       6.29       7.73      15.04
O      11.37       6.38       5.58
O       8.08       1.23      13.35
O      14.46      12.57      14.95
O       5.19       6.65       5.57
O      11.75       4.90      15.03
O       5.22       6.60      13.35
O      11.81      13.48      14.84
O      14.62       6.29       3.98
O       6.56       1.59      15.04
O      15.24       3.50      14.84
O      14.70       6.25      14.94
O      11.74       4.79       3.96
O      13.47       2.23       4.18
O       8.04       1.17       5.58
O      19.41       7.40       3.42
O       7.79      10.54      14.71
O      20.06       9.61      14.95
O      19.46       7.44      15.27
O      16.65      13.14      15.27
O      20.05       9.51       3.99
O       7.74      10.55       4.19
O      16.70      13.11       3.43
O      13.43       2.20      14.71
O      22.13      11.47       4.09
O      11.81      13.43       4.09
O      13.11       7.86      15.26
O      22.17      11.45      14.84
