162

Al      12.06       7.85      12.88
Al      10.49       5.09      13.36
Al       8.90       7.66      13.35
Al       1.20       0.66       0.51
Al       4.35       1.10       0.14
Al       2.57       3.54       0.16
H      10.32       9.17      19.61
H       6.15       6.60       7.75
H       7.82       6.43       7.21
H       7.01       6.19       5.04
H       5.34       6.08       5.61
H       5.64       2.94       8.48
H       4.80       4.50       8.34
H       8.06       2.73       7.79
H       7.67       2.47       5.52
H       4.30       4.02       6.14
H       9.42      12.67      18.83
H      13.64       7.12      21.62
H       7.38       1.68      19.96
H      12.54       9.71      18.66
H      12.92      11.42      18.46
H       8.49      12.45      20.54
H       7.76      11.07      21.35
H       8.79      12.16      22.27
H       9.76      10.05      23.06
H       8.77       9.14      21.90
H      10.51       8.86      21.99
H      13.80      12.64      20.48
H      12.99       7.26      19.41
H      13.99      11.64      21.93
H      14.64      11.09      20.36
H       7.95      10.92      18.78
H       8.49       9.40      18.05
H       7.83       9.41      19.70
H      14.08       1.83      18.93
H      13.83       2.85      17.49
H      15.42       2.82      18.29
H       4.23       1.66       6.83
H       4.83       1.77       5.17
H      15.87       7.01      20.94
H       5.95       1.45       6.51
H       4.84       2.54      21.38
H       6.50       3.08      21.60
H       5.66       3.46      20.09
H      13.72       9.09      20.83
H      12.73       9.49      22.26
H      11.99       8.71      20.84
H      16.72       5.48      20.71
H      12.79       3.79      19.54
H      12.00       5.81      19.59
H      15.55       3.45      20.67
H       9.01       4.17       7.41
H      13.94       9.17      13.31
H      16.61      10.98       1.64
C      12.61       5.74      15.01
C       9.88      10.76      21.00
C      11.23      11.60      21.12
C       8.61       5.71      15.41
C      12.50      10.83      20.55
C      12.28      10.72      19.01
C      11.43      11.97      22.50
C      10.61      10.60      17.23
C      10.49      10.15      16.11
C      13.00       6.22      19.74
C      15.40       6.01      19.06
C       8.33       5.46      19.37
C      15.76       5.99      20.56
C      15.68       5.13      23.85
C      13.98       5.40      18.85
C      10.39       9.42      14.88
C      13.40       6.13      21.23
C      14.67       5.26      21.40
C      14.53       3.85      20.77
C      13.87       3.92      19.38
C      15.15       5.20      22.76
C      13.56       5.48      17.46
C       8.30       5.48      18.03
C      13.18       5.55      16.31
C       8.02       3.71       7.29
C       6.84       5.94       7.21
C       6.35       5.69       5.77
C      12.19       5.33      11.20
C       5.56       3.77       2.95
C       6.94       4.60       7.97
C       7.69       3.53       5.80
C       6.32       4.17       5.47
C       5.24       3.52       6.41
C       8.31       5.51      16.80
C       5.58       3.86       7.88
C       5.94       3.94       4.09
C       7.29       4.83       9.36
C       7.58       5.04      10.52
C       8.51      10.59       3.63
C       8.17       5.41      11.76
C       8.71      10.33       4.81
C       8.93      10.08       6.11
C       9.14       9.89       7.31
C       9.37       9.67       8.61
C       9.86      10.16      19.56
C       9.59       9.46       9.80
C      12.88       3.50       3.66
C      12.77       3.76       4.85
C      12.68       4.05       6.16
C      12.64       4.30       7.37
C      12.56       4.60       8.67
C       9.88       9.00      11.13
C      12.48       4.88       9.86
C      11.53      12.88      24.98
C       8.18       5.15      24.56
C      10.50      12.50      18.87
C      16.43       4.90      25.06
C       8.23      11.09       2.30
C       4.95       3.37       1.72
C      13.21       3.10       2.32
C       8.43       5.38      23.16
C       8.43       5.43      21.94
C       8.40       5.46      20.60
C       8.67      11.67      21.29
C       9.75       9.64      22.04
C      13.80      11.61      20.85
C      11.13      12.90      20.22
C       8.45       9.97      18.99
C      14.34       2.79      18.46
C       5.06       2.02       6.21
C       5.79       2.69      20.86
C      12.73       9.45      21.16
C      11.52      12.29      23.68
C      10.80      11.00      18.62
Cl       4.33       5.13      18.10
Cl      15.41       7.72      18.46
Cl      13.69       2.66      21.81
Cl      12.01       5.60      22.23
Cl       8.99       4.22       4.75
Cl       6.37       2.09      17.57
O      11.45       9.14      14.26
O       7.38       5.97      25.13
O      17.19       5.86      25.47
O      12.86       6.82      14.40
O      12.95       1.91       1.98
O       7.02      11.21       1.97
O       9.26      11.42       1.60
O       5.36       2.28       1.19
O       3.99       4.09       1.27
O      13.79       3.99       1.60
O       2.72       1.78       0.27
O       9.05       4.62      12.25
O      11.85       4.79      14.58
O       9.34       4.83      14.86
O       8.17       6.78      14.88
O       9.20       9.06      14.53
O      11.09       8.76      11.41
O      12.53       6.51      11.50
O      11.56       4.50      11.96
O       7.84       6.54      12.27
O       8.87       8.83      11.90
O      10.47       6.85      13.21
O      16.33       3.76      25.59
O      10.42      13.06      25.55
O      12.69      13.22      25.46
O       8.70       4.11      25.07
O      13.54       8.72      12.55
O      16.91      11.10       0.73
