170

Zn       6.66       8.22      13.99
Zn       9.57       8.15      13.99
H       6.07       8.48       9.79
H       6.07       8.31      18.29
H       7.91       5.34       3.37
H       8.92      11.11      24.56
H      10.33       7.80      18.05
H      10.36       8.17       9.76
H      10.43       7.59      20.54
H      10.34       8.43       7.27
H       8.80       4.47      24.41
H       8.04      11.98       3.54
H       8.08       5.38       0.90
H       8.84      11.07      27.03
H       6.03      12.33      13.13
H       9.76       3.78      15.00
H       6.75       4.35      12.00
H      10.31      12.36      13.45
H       0.32       4.86      12.82
H      15.88       9.71      17.26
H       0.41      11.78      15.02
H      15.98       6.80      10.68
H       5.29       5.71      10.88
H      10.63      11.15      16.34
H       4.74      12.18      15.41
H      10.63       5.10      11.82
H       4.65       8.98       5.67
H       4.88       8.15      22.53
H      10.04       2.99      25.24
H      11.18       4.06      26.09
H      10.73       2.48      26.79
H       9.98       5.19       0.19
H       8.38       3.28      27.11
H       5.74      12.44       1.85
H       6.88      13.50       2.68
H       6.20      13.99       1.13
H       8.55      13.17       0.83
H       6.94      11.26      27.75
H       4.67      16.18      11.64
H      10.70      -0.47      15.30
H       6.86       0.87       9.35
H      11.86      16.09      12.01
C       8.06       5.65      13.95
C       8.15      10.73      13.64
C       8.19       8.18      11.42
C       8.14       8.19      16.53
C       8.16       7.39       5.04
C       8.57       9.06      22.89
C       8.32       9.89       5.10
C       8.44       6.56      22.85
C       9.41       8.44       7.84
C       9.48       7.75      20.04
C       9.43       8.30       9.22
C       9.43       7.86      18.65
C       7.01       8.47       9.24
C       7.03       8.15      18.78
C       6.98       8.58       7.84
C       7.07       8.06      20.18
C       8.20       8.57       7.15
C       8.32       7.87      20.80
C       8.40       8.67       2.89
C       8.46       7.78      25.05
C       8.26       7.44       3.57
C       8.57       9.01      24.37
C       8.13       6.27       2.84
C       8.73      10.18      25.09
C       8.34       9.88       3.62
C       8.50       6.57      24.33
C       8.22       8.32       9.93
C       8.19       8.06      18.02
C       8.39       6.47      27.15
C       8.52       9.99       0.79
C       8.34       8.98      27.20
C       8.57       7.48       0.75
C       8.36       7.74      26.48
C       8.54       8.72       1.47
C       8.71       5.31      26.41
C       8.19      11.15       1.54
C       8.67       5.37      25.01
C       8.20      11.08       2.94
C       8.26       6.30       1.45
C       8.64      10.15      26.49
C       6.97      14.21      12.70
C       9.22       2.03      13.88
C       7.60       2.39      12.08
C       9.40      14.24      12.91
C       6.98      12.86      13.05
C       9.12       3.38      14.22
C       7.45       3.70      12.52
C       9.38      12.88      13.23
C       8.17      12.19      13.30
C       8.19       4.21      13.59
C       8.19      14.93      12.63
C       8.44       1.50      12.81
C       8.22      16.33      12.47
C       8.43       0.11      12.55
C       2.39       7.28      13.25
C      13.83       8.96      14.90
C       2.43       9.33      14.55
C      13.84       7.48      12.99
C       3.79       7.31      13.25
C      12.43       8.91      14.88
C       3.82       9.24      14.55
C      12.45       7.44      13.07
C       1.70       8.32      13.90
C      14.55       8.26      13.93
C       0.30       8.33      13.90
C      15.95       8.30      13.91
C       1.57       6.26      12.50
C      14.59       9.83      15.86
C       1.66      10.38      15.30
C      14.65       6.64      12.04
C       4.41       6.15      12.50
C      11.75       9.68      15.99
C       4.56      10.28      15.37
C      11.78       6.58      12.02
C       5.62       8.68       7.24
C       5.76       8.19      20.88
C       9.21       4.00      27.02
C      10.35       3.35      26.23
C       7.71      12.46       0.92
C       6.57      13.13       1.70
C       5.62      14.83      12.53
C      10.24       1.25      14.66
C       6.88       2.06      10.81
C      10.72      14.94      12.97
N       8.27       8.62       5.71
N       8.47       7.82      22.23
N       4.50       8.26      13.90
N      11.75       8.15      13.99
O       6.95       6.21      13.65
O       9.24      10.10      13.45
O       7.06      10.25      14.09
O       9.07       6.21      14.48
O       7.11       8.50      12.00
O       9.22       8.56      15.95
O       7.04       7.93      15.96
O       9.25       7.74      11.99
O       8.01       6.34       5.68
O       8.62      10.11      22.25
O       8.36       5.53      22.18
O       8.34      10.91       5.78
O       1.41       6.29      11.29
O       0.95       5.41      13.34
O      14.61      11.05      15.79
O      15.31       9.10      16.73
O       1.61      10.42      16.52
O       0.98      11.19      14.47
O      14.76       5.43      12.17
O      15.33       7.38      11.14
O       4.20       5.00      12.85
O       5.03       6.52      11.37
O      11.97       9.39      17.15
O      11.05      10.73      15.55
O       5.17      10.04      16.38
O       4.30      11.50      14.85
O      12.00       6.76      10.84
O      11.07       5.58      12.55
O       4.58       8.56       7.88
O       5.60       8.94       5.90
O       4.70       8.42      20.31
O       5.81       8.04      22.24
O       4.63      14.45      13.13
O       5.59      15.85      11.63
O      11.25       1.77      15.11
O       9.94      -0.06      14.83
O       5.97       2.73      10.36
O       7.38       0.98      10.17
O      11.50      14.84      13.91
O      10.99      15.66      11.85
