252

Cd       5.00      15.90      11.29
Cd       1.31       5.30       1.74
Cd       2.38       5.30      14.78
Cd       6.08      15.90      24.33
Cd       1.69      15.90      12.64
Cd       5.38       5.30       0.40
Cd       5.70       5.30      13.43
Cd       2.00      15.90      25.67
H       4.78       3.21      10.85
H       1.09      17.99       2.18
H       2.60      13.81      15.21
H       6.29       7.39      23.89
H       2.60      17.99      15.21
H       6.29       3.21      23.89
H       4.78       7.39      10.85
H       1.09      13.81       2.18
H       0.98       2.89      13.05
H       4.67      18.30      26.05
H       6.41      13.49      13.02
H       2.72       7.71       0.02
H       6.41      18.30      13.02
H       2.72       2.89       0.02
H       0.98       7.71      13.05
H       4.67      13.49      26.05
H       2.74       1.87      11.67
H       6.44      19.33       1.36
H       4.64      12.46      14.40
H       0.95       8.73      24.71
H       4.64      19.33      14.40
H       0.95       1.87      24.71
H       2.74       8.73      11.67
H       6.44      12.46       1.36
H       4.33      21.13      11.60
H       0.63       0.06       1.44
H       3.06      10.53      14.47
H       6.75      10.66      24.63
H       3.06       0.06      14.47
H       6.75      21.13      24.63
H       4.33      10.66      11.60
H       0.63      10.53       1.44
H       1.04      18.46      10.85
H       4.73       2.73       2.19
H       6.35       7.87      15.22
H       2.66      13.33      23.88
H       6.35       2.73      15.22
H       2.66      18.46      23.88
H       1.04      13.33      10.85
H       4.73       7.87       2.19
H       6.83      20.37      10.92
H       3.14       0.82       2.11
H       0.55       9.77      15.15
H       4.25      11.42      23.96
H       0.55       0.82      15.15
H       4.25      20.37      23.96
H       6.83      11.42      10.92
H       3.14       9.77       2.11
H       1.35      15.90      22.05
H       5.05       5.30      17.06
H       6.03       5.30       4.02
H       2.34      15.90       9.01
H       4.66      15.90      21.07
H       0.97       5.30      18.04
H       2.72       5.30       5.00
H       6.41      15.90       8.03
H       0.60      15.90      17.69
H       4.29       5.30      21.42
H       6.79       5.30       8.38
H       3.10      15.90       4.65
H       7.16      15.90      15.32
H       3.46       5.30      23.79
H       0.23       5.30      10.75
H       3.92      15.90       2.28
H       3.11      15.90      16.72
H       6.80       5.30      22.38
H       4.28       5.30       9.35
H       0.59      15.90       3.68
H       3.89      15.90      19.06
H       0.20       5.30      20.04
H       3.50       5.30       7.01
H       7.19      15.90       6.03
C       5.74       2.84      11.22
C       2.04      18.35       1.81
C       1.65      13.44      14.85
C       5.34       7.76      24.26
C       1.65      18.35      14.85
C       5.34       2.84      24.26
C       5.74       7.76      11.22
C       2.04      13.44       1.81
C       0.17       2.74      12.34
C       3.86      18.45       0.69
C       7.22      13.34      13.73
C       3.53       7.86      25.37
C       7.22      18.45      13.73
C       3.53       2.74      25.37
C       0.17       7.86      12.34
C       3.86      13.34       0.69
C       1.01       0.62      11.34
C       4.70      20.57       1.70
C       6.38      11.22      14.73
C       2.68       9.98      24.37
C       6.38      20.57      14.73
C       2.68       0.62      24.37
C       1.01       9.98      11.34
C       4.70      11.22       1.70
C       2.38       0.85      11.51
C       6.07      20.34       1.53
C       5.01      11.45      14.56
C       1.32       9.74      24.54
C       5.01      20.34      14.56
C       1.32       0.85      24.54
C       2.38       9.74      11.51
C       6.07      11.45       1.53
C       3.26      20.97      11.47
C       6.95       0.22       1.57
C       4.13      10.37      14.60
C       0.43      10.82      24.50
C       4.13       0.22      14.60
C       0.43      20.97      24.50
C       3.26      10.82      11.47
C       6.95      10.37       1.57
C       2.78      19.67      11.28
C       6.47       1.53       1.76
C       4.61       9.07      14.79
C       0.92      12.12      24.31
C       4.61       1.53      14.79
C       0.92      19.67      24.31
C       2.78      12.12      11.28
C       6.47       9.07       1.76
C       1.41      19.47      11.04
C       5.10       1.72       2.00
C       5.98       8.87      15.03
C       2.29      12.32      24.07
C       5.98       1.72      15.03
C       2.29      19.47      24.07
C       1.41      12.32      11.04
C       5.10       8.87       2.00
C       0.51      20.53      11.07
C       4.21       0.66       1.97
C       6.87       9.94      15.00
C       3.18      11.26      24.10
C       6.87       0.66      15.00
C       3.18      20.53      24.10
C       0.51      11.26      11.07
C       4.21       9.94       1.97
C       3.70      18.49      11.37
C       0.01       2.70       1.67
C       3.68       7.90      14.70
C       7.38      13.30      24.40
C       3.68       2.70      14.70
C       7.38      18.49      24.40
C       3.70      13.30      11.37
C       0.01       7.90       1.67
C       0.44      15.90      21.46
C       4.13       5.30      17.64
C       6.95       5.30       4.61
C       3.26      15.90       8.43
C       5.75      15.90      21.00
C       2.05       5.30      18.11
C       1.64       5.30       5.07
C       5.33      15.90       7.96
C       6.92      15.90      17.46
C       3.23       5.30      21.65
C       0.47       5.30       8.61
C       4.16      15.90       4.42
C       6.46      15.90      16.15
C       2.76       5.30      22.96
C       0.93       5.30       9.92
C       4.62      15.90       3.11
C       5.09      15.90      15.87
C       1.39       5.30      23.24
C       2.30       5.30      10.20
C       5.99      15.90       2.83
C       4.17      15.90      16.93
C       0.48       5.30      22.17
C       3.21       5.30       9.14
C       6.90      15.90       3.90
C       4.62      15.90      18.25
C       0.93       5.30      20.85
C       2.77       5.30       7.82
C       6.46      15.90       5.22
C       6.00      15.90      18.51
C       2.30       5.30      20.60
C       1.39       5.30       7.56
C       5.08      15.90       5.47
C       4.59      15.90      14.45
C       0.90       5.30      24.66
C       2.79       5.30      11.62
C       6.49      15.90       1.41
N       0.10       1.70      11.48
N       3.79      19.50       1.55
N       7.29      12.30      14.59
N       3.60       8.90      24.52
N       7.29      19.50      14.59
N       3.60       1.70      24.52
N       0.10       8.90      11.48
N       3.79      12.30       1.55
N       6.32       1.75      10.76
N       2.63      19.45       2.27
N       1.07      12.34      15.30
N       4.76       8.85      23.80
N       1.07      19.45      15.30
N       4.76       1.75      23.80
N       6.32       8.85      10.76
N       2.63      12.34       2.27
N       6.46       3.49      12.19
N       2.76      17.71       0.84
N       0.93      14.08      13.88
N       4.62       7.11      25.23
N       0.93      17.71      13.88
N       4.62       3.49      25.23
N       6.46       7.11      12.19
N       2.76      14.08       0.84
N       6.46      15.90      19.85
N       2.77       5.30      19.26
N       0.92       5.30       6.22
N       4.61      15.90       6.81
N       0.42      15.90      20.14
N       4.11       5.30      18.96
N       6.97       5.30       5.93
N       3.28      15.90       7.10
N       6.58      15.90      22.03
N       2.88       5.30      17.07
N       0.81       5.30       4.04
N       4.50      15.90       8.99
Cl       0.10      15.90      10.62
Cl       3.79       5.30       2.41
Cl       7.29       5.30      15.45
Cl       3.59      15.90      23.65
O       3.15      17.32      11.39
O       6.85       3.87       1.65
O       4.23       6.72      14.68
O       0.54      14.47      24.42
O       4.23       3.87      14.68
O       0.54      17.32      24.42
O       3.15      14.47      11.39
O       6.85       6.72       1.65
O       4.95      18.65      11.42
O       1.26       2.54       1.61
O       2.44       8.05      14.65
O       6.13      13.14      24.46
O       2.44       2.54      14.65
O       6.13      18.65      24.46
O       4.95      13.14      11.42
O       1.26       8.05       1.61
O       5.48      15.90      13.53
O       1.78       5.30      25.58
O       1.91       5.30      12.54
O       5.60      15.90       0.49
O       3.33      15.90      14.29
O       7.03       5.30      24.82
O       4.05       5.30      11.78
O       0.36      15.90       1.25
