204

Cu      16.43      18.33      21.86
Cu      18.51      18.55      19.61
Cu      16.79      21.14      20.48
Cu      18.26       5.30       4.48
Cu      21.00       5.69       6.09
Cu      19.02       3.22       6.66
Cu       2.28      20.73       3.43
Cu       1.20      20.12       6.33
Cu       3.30      22.52       5.74
Cu       4.57       5.22      24.36
Cu       2.39       4.91      22.07
Cu       5.28       3.85      21.53
H      17.47      15.77      23.43
H      20.34      15.93      20.18
H      14.37      22.76      21.87
H      13.63      18.73      23.27
H      19.75      19.63      16.93
H      18.14      23.31      18.56
H      18.37       7.79       2.56
H      22.22       8.17       4.50
H      17.00       0.83       5.95
H      15.85       3.82       3.03
H      23.24       5.10       8.33
H      20.41       1.92       9.12
H       1.11      18.34       1.83
H      -0.06      17.15       5.83
H       5.79      23.97       4.29
H       3.91      21.93       0.96
H       0.01      21.14       9.08
H       2.93      24.24       8.33
H       2.97       7.13      26.41
H       0.05       6.64      23.25
H       7.96       2.42      22.25
H       7.03       4.20      26.09
H       0.87       3.78      19.49
H       4.99       2.87      18.48
H      22.29      -0.16      13.30
H       1.18       1.28      12.89
H      -2.11      22.98      13.40
H      -0.47      -0.48      16.49
H      -2.33      11.11      23.98
H      24.08      11.78       1.39
H      19.20      11.24      25.44
H      21.73      14.24      26.08
H       8.16      21.48      25.46
H      11.70       0.42       1.05
H       9.84      24.74      24.01
H      13.23      23.98       0.14
H      19.16      13.93      24.75
H      22.88      10.13       2.24
H      -0.21      16.28       0.79
H      -1.10       9.05      24.15
H      12.27      23.48      24.12
H       9.48       0.44      23.73
H      13.97       1.88       1.94
H       8.14      24.30       2.42
H      20.74      24.43      16.97
H      -1.02      22.77      11.22
H       0.23       1.70      17.44
H      22.05       0.97      11.14
C      18.06      15.99      22.55
C      19.21      15.37      22.05
C      19.51      16.08      20.88
C      14.40      21.71      22.12
C      13.48      20.93      22.85
C      14.02      19.64      22.82
C      19.25      20.40      17.51
C      19.22      21.79      17.29
C      18.45      22.29      18.34
C      19.26       7.69       3.18
C      20.43       8.46       3.16
C      21.23       7.90       4.16
C      16.86       1.73       5.35
C      16.02       1.93       4.24
C      16.27       3.25       3.85
C      22.41       4.40       8.34
C      22.18       3.31       9.20
C      20.97       2.77       8.76
C       0.89      18.25       2.89
C       0.30      17.20       3.61
C       0.31      17.64       4.94
C       5.17      23.38       3.62
C       5.27      23.18       2.24
C       4.19      22.34       1.92
C       0.80      21.78       8.71
C       1.28      22.99       9.21
C       2.30      23.36       8.32
C       2.41       6.86      25.52
C       1.12       7.27      25.13
C       0.92       6.63      23.90
C       7.56       2.97      23.09
C       7.98       3.01      24.43
C       7.08       3.89      25.05
C       1.95       3.63      19.46
C       2.75       3.09      18.44
C       4.06       3.19      18.94
C      22.03      24.74      14.38
C      23.36      -0.09      13.47
C      24.22       0.77      12.90
C       0.48       0.57      13.34
C      -2.09      24.06      13.52
C      -1.27      24.95      12.95
C      -0.38      -0.28      15.43
C       0.46       0.60      14.86
C      21.30      12.17      25.22
C      22.47      11.22      24.98
C      -2.34      10.63      26.11
C      23.72      12.25       0.48
C      20.19      11.34      25.88
C      22.25      11.95       0.13
C      21.77      13.18      26.28
C      23.82      13.78       0.52
C       9.85      23.03      25.55
C       8.49      22.41      25.91
C       7.83      23.17      26.78
C      10.22      25.64       0.34
C       9.55      24.45      25.02
C      10.89      -0.67      25.90
C      10.60      23.22      26.87
C      11.58      25.17       0.86
C      19.97      14.30      22.66
C      19.85      13.75      23.93
C      20.69       9.55       2.24
C      21.85      10.22       1.90
C      -0.21      15.98       3.03
C      -0.40      15.71       1.68
C       0.21       8.19      25.78
C      -0.78       8.95      25.18
C      12.25      21.30      23.53
C      11.82      22.50      24.06
C       8.98       2.20      25.08
C       9.57       1.02      24.64
C      15.24       0.92       3.55
C      14.38       1.04       2.48
C       6.30      23.59       1.31
C       7.58      24.07       1.52
C      19.90      22.47      16.21
C      20.59      23.68      16.20
C       0.80      23.77      10.34
C      -0.28      23.55      11.16
C       2.33       2.50      17.19
C       1.14       1.87      16.87
C      23.02       2.82      10.27
C      22.82       1.72      11.09
N      18.61      17.05      20.69
N      17.70      17.00      21.73
N      15.17      19.64      22.13
N      15.41      20.92      21.69
N      18.05      21.27      19.14
N      18.56      20.10      18.62
N      20.58       6.86       4.74
N      19.35       6.74       4.12
N      17.20       3.80       4.66
N      17.57       2.85       5.58
N      20.50       3.49       7.72
N      21.39       4.50       7.46
N       0.87      18.87       5.01
N       1.23      19.25       3.73
N       3.50      22.06       3.04
N       4.10      22.71       4.10
N       2.40      22.44       7.35
N       1.47      21.45       7.59
N       2.00       5.90      23.58
N       2.93       6.05      24.58
N       6.17       4.32      24.15
N       6.47       3.75      22.93
N       4.03       3.74      20.17
N       2.73       4.02      20.49
N      21.60      12.84      22.88
N      21.05      13.71      22.05
N      20.86      12.86      24.02
N      20.13      11.00       0.68
N      19.67      10.07       1.47
N      21.48      11.11       0.93
N      -1.00      13.93       2.92
N      -0.60      14.86       3.74
N      -0.88      14.44       1.64
N       0.90      10.53       0.51
N       1.84       9.66       0.25
N      -1.35       9.65      26.20
N      10.32      20.89      24.47
N      11.30      20.35      23.80
N      10.61      22.21      24.63
N      10.14       1.43      26.78
N       9.38       2.41      26.38
N      10.28       0.57      25.72
N      12.74      24.71       2.92
N      13.39      25.42       3.80
N      12.08      25.59       2.10
N       5.59      22.52      26.21
N       4.50      22.21      26.83
N       8.14      24.13       0.27
N      20.79      22.67      14.22
N      20.05      21.90      14.97
N      21.13      23.76      14.96
N       2.73      -0.32      11.66
N       1.36      24.99      10.68
N      -0.33      24.66      11.97
N       2.53       1.82      15.11
N       3.14       2.44      16.07
N       1.29       1.47      15.58
N      -0.44       2.73      11.60
N      24.22       3.40      10.62
N      23.92       1.69      11.90
