154

Zn       7.93      12.60       8.89
Zn      -2.09      -2.01       8.94
Zn      -2.18      -4.91      11.15
Zn       7.74      15.42       6.98
H       7.07       9.96      11.08
H      -4.15      -0.33      10.70
H      -0.34      -3.99      13.60
H      12.48      -2.29       8.10
H      -1.99      -0.21      12.29
H       5.54      13.28      10.89
H      13.64      -0.22       6.87
H      -3.60      -5.77      13.71
H       8.21      10.45       6.48
H       1.09      -1.22       9.77
H      -8.42      10.85      11.72
H       9.54      14.65       4.43
H       0.39      -2.26       6.82
H       9.72      10.31       7.78
H       7.37      13.89       4.02
H      -6.81      13.29      10.24
H       5.73      -1.51      11.30
H       8.06      -1.62      11.52
H       8.04      -5.36      11.41
H       8.12      -3.96      12.50
H       5.78      -3.76      12.47
H       5.71      -5.25      11.54
H       8.11      -3.39       8.23
H       0.58      13.78       8.89
H       5.78      -3.59       8.17
H       8.19      -1.37       9.79
H       5.86      -1.45       9.54
H      -1.76      13.66       9.00
H      -8.54       5.72      12.12
H      -7.81       3.51      12.09
H      10.38       3.11       8.68
H       9.45       5.14      10.58
H       9.63       5.32       8.82
H      -5.94       4.16       8.93
H      12.57       3.79       7.82
H      -6.60       6.41       8.97
H      -6.26       4.00      11.41
H      -6.96       6.23      11.51
H      11.90       6.04       7.88
H       1.19      -2.92      14.84
H       2.59      -1.77      16.53
H       8.54       7.94       2.23
H       8.05       9.13       4.37
H      -0.16       0.90      13.34
H       9.29      11.68       0.27
H       1.30       2.04      15.01
H       8.87      12.89       2.40
H      11.01      14.32       2.74
H      12.11      14.83       0.58
H       6.32       7.22      15.03
H       6.49       8.70      13.04
H       1.70      -2.07       4.81
H     -11.03       9.90      17.28
H      -4.79      17.20       2.64
H     -10.84      11.40      15.31
C       7.47      10.86      11.55
C      -4.49      -0.44       9.67
C      -0.90      -3.17      13.16
C      12.87      -3.12       8.68
C      -1.75      -1.26      12.48
C      13.21      -4.78      10.11
C      14.31      -0.40       7.71
C     -11.56      12.42      12.89
C       7.81      11.09      12.90
C      14.25       0.15       9.01
C      -0.69      -1.79      13.25
C      12.25      -3.81       9.74
C       7.99      11.43       6.07
C       0.78      -2.25       9.86
C      -8.89      10.96      10.75
C      10.14      15.15       5.18
C      -0.52      -2.68       6.39
C      10.07      10.68       8.74
C       7.56      13.18       4.82
C       0.63      -4.45      10.10
C       7.98      11.84       4.73
C       1.57      -3.40      10.05
C      -9.17       9.96       9.79
C      -8.35      15.55       5.12
C       7.73      -2.02      10.55
C       7.70      -4.32      11.55
C       6.15      -4.25      11.56
C       2.97      -3.45      10.18
C       8.27      -3.46      10.39
C       6.19      -2.00      10.43
C       5.64      -3.45      10.33
C       6.20      -4.11       9.05
C       7.75      -4.03       9.04
C       4.19      -3.45      10.28
C       9.72      -3.51      10.36
C      10.92      -3.65      10.16
C      -7.35       4.08      11.28
C      10.60       3.56       9.65
C      10.15       5.03       9.74
C      10.87       8.57       9.88
C      12.13       3.44       9.92
C      -7.81       5.56      11.32
C      11.36       5.96       9.97
C      12.37       5.74       8.82
C      12.81       4.26       8.78
C      11.00       7.37       9.97
C      12.66       2.09       9.78
C      13.37       1.15       9.48
C       8.36      11.11       3.53
C       8.77      11.80       2.37
C       9.03      11.14       1.18
C       8.89       9.74       1.12
C       8.62       9.02       2.30
C       8.34       9.70       3.48
C       1.99      -1.19      15.82
C       1.20      -1.83      14.88
C       1.97       0.21      15.92
C       0.33      -1.10      14.03
C       0.45       0.30      14.03
C       1.26       0.95      14.95
C       7.74      10.17      14.03
C     -11.43      10.48      15.24
C     -11.51       9.65      16.34
C       7.55       8.47      16.28
C       6.92       8.13      15.06
C       7.02       8.97      13.96
C      12.50      15.23       1.52
C      11.89      14.96       2.73
C      -6.22      16.10       1.47
C      -7.50      15.56       3.93
C      -6.31      16.30       3.89
C      -5.67      16.56       2.68
N       7.74      11.95      10.81
N      -3.84      -1.24       8.81
N      -1.99      -3.41      12.40
N      14.08      -3.65       8.44
N      -2.52      -2.22      11.96
N       6.68      14.14       9.31
N      15.36      -1.23       7.59
N       8.23      12.93      11.64
N       7.64      12.45       6.89
N      -0.51      -2.61       9.83
N      -9.30      12.15      10.30
N       9.61      15.49       6.36
N      -1.65      -2.71       7.11
N       9.97      12.00       9.06
N       7.37      13.55       6.10
N      -0.62      -3.97       9.96
N       2.57       0.25      18.08
N       2.39       0.95      17.03
N       7.24       7.67      17.39
N      -5.71      16.68       0.30
N       9.83       2.67      10.63
O       9.57       3.12      11.75
O       9.56       1.53      10.24
