124

Al       6.89       0.02      12.47
Al       4.48      24.54      12.51
Al       0.55      12.29       0.01
Al       3.88      12.26       0.05
H       1.92       1.71      12.92
H       6.18      22.88      12.97
H       2.83      10.55      24.64
H       6.15      13.94      24.58
H       3.52       9.92       3.28
H       3.40       8.19       5.08
H       0.91       7.26       4.38
H       3.20       5.01       8.13
H       0.59       2.35       9.23
H       0.71       4.08       7.44
H       7.48      14.65      21.69
H       7.44      16.38      19.90
H       4.94      17.26      20.72
H       7.39      19.56      16.84
H       4.84      22.17      15.86
H       4.89      20.44      17.65
H       4.34      14.62       3.27
H       4.49      16.37       5.04
H       6.96      17.27       4.43
H       4.73      19.57       8.08
H       7.34      22.21       9.25
H       7.19      20.46       7.47
H       4.05       9.96      21.79
H       3.84       8.23      20.00
H       1.32       7.13      20.66
H       3.43       5.11      16.91
H       0.70       2.29      15.77
H       0.91       4.01      17.56
C       5.26       1.66      14.28
C       5.16       1.62      10.71
C       2.78      22.94      10.71
C       2.83      22.90      14.28
C       6.15      10.60      23.27
C       5.60      10.65       1.80
C       2.25      13.89       1.81
C       2.84      13.92      23.27
C       5.59       9.61       2.87
C       4.40       9.34       3.56
C       4.33       8.37       4.55
C       5.47       7.60       4.86
C       6.67       7.85       4.18
C       6.72       8.84       3.21
C       5.41       6.58       5.84
C       5.35       5.69       6.67
C       5.29       4.67       7.65
C       4.09       4.42       8.34
C       4.04       3.43       9.30
C       5.17       2.66       9.65
C       6.36       2.93       8.95
C       6.43       3.90       7.97
C       2.89      14.95      22.19
C       1.73      15.22      21.45
C       1.70      16.19      20.46
C       2.85      16.95      20.18
C       4.03      16.69      20.90
C       4.03      15.71      21.88
C       2.84      17.97      19.20
C       2.84      18.86      18.36
C       2.82      19.87      17.38
C       1.64      20.13      16.65
C       1.64      21.12      15.67
C       2.79      21.87      15.36
C       3.95      21.60      16.10
C       3.98      20.63      17.09
C       2.26      14.93       2.88
C       3.46      15.20       3.55
C       3.55      16.18       4.53
C       2.41      16.95       4.87
C       1.20      16.69       4.21
C       1.14      15.70       3.24
C       2.48      17.97       5.84
C       2.54      18.86       6.67
C       2.62      19.89       7.64
C       3.83      20.15       8.31
C       3.89      21.14       9.27
C       2.77      21.91       9.64
C       1.57      21.63       8.96
C       1.48      20.66       7.98
C       6.12       9.56      22.20
C       4.91       9.34      21.51
C       4.79       8.38      20.52
C       5.89       7.56      20.19
C       7.11       7.75      20.87
C       7.20       8.74      21.85
C       5.76       6.55      19.21
C       5.63       5.69      18.36
C       5.51       4.68      17.37
C       4.29       4.49      16.69
C       4.20       3.51      15.71
C       5.29       2.69      15.36
C       6.50       2.90      16.05
C       6.61       3.86      17.04
O       6.39       1.18      13.94
O       4.05       1.10      11.03
O       3.88      23.21      11.28
O       1.73      23.22      13.72
O       1.66      23.48      10.99
O       3.98      23.38      13.99
O       4.13       1.34      13.77
O       6.29       1.34      11.23
O       1.90       0.82      12.53
O       6.15      23.74      12.53
O       7.28      10.91      23.78
O       4.47      10.93       1.28
O       3.38      13.36       1.52
O       1.70      13.44      23.56
O       1.15      13.62       1.23
O       3.94      13.60      23.83
O       5.02      11.08      23.61
O       6.72      11.17       1.48
O       2.85      11.44      25.02
O       6.18      13.08      25.02
F       1.25       9.01       2.56
F       2.86       3.26       9.95
F       5.21      15.53      22.55
F       7.12      21.29      15.01
F       6.59      15.52       2.63
F       5.09      21.32       9.88
F       1.75       8.86      22.47
F       3.00       3.39      15.09
