110

Hf      12.57       1.85       0.18
Hf      12.57      14.69      13.05
Hf      19.10      14.59       2.75
Hf       6.02      12.01       0.38
Hf      16.58      14.52       0.27
Hf       8.54      14.47       0.28
H       8.05       7.34       0.34
H       5.71       8.70       0.32
H      17.12       6.81      14.95
H      19.45       5.44      14.94
H      21.05      14.83       7.47
H      18.70      14.60       6.10
H      10.56      14.22       8.23
H      12.84      14.05       9.65
H       7.85       1.71      13.42
H      23.64      12.77      13.53
H       7.99      12.48       2.25
H      10.66       1.38       2.25
H      13.35      12.80      11.39
H      12.53      11.78      12.88
H      18.37      10.30       2.30
H      19.08      11.87       3.32
H      13.38       1.29       4.46
H      12.63       2.36       2.90
H      18.45       3.85      13.54
H       6.80       0.95      10.68
H      19.92      12.58       4.53
H      13.45       3.53       2.10
H       5.23       0.99      10.94
H      13.40      10.64      13.68
C       6.77       5.55       0.31
C       7.05       6.92       0.33
C       5.84       7.63       0.33
C       4.79       6.71       0.31
C      11.88       8.28       0.02
C      18.11       7.23      15.08
C      19.32       6.51      15.10
C      13.85       7.11       0.07
C      19.77      14.73       9.26
C      20.05      14.74       7.89
C      18.84      14.62       7.18
C      17.80      14.53       8.10
C      11.89      14.39       6.48
C      11.57      14.27       7.84
C      12.76      14.20       8.58
C      13.83      14.30       7.69
C       9.36       2.45       0.15
C      15.78      14.61      12.39
C      22.37      14.89      12.36
C       2.82       2.38       0.39
C       9.25      14.57       3.43
C      15.87      11.39       0.43
C       9.23      11.33       0.17
C      15.90      14.46       3.39
C      11.05      14.48       5.37
C      10.26      14.55       4.45
C      14.04      14.44       5.28
C      14.88      14.44       4.40
C      17.65      14.59      10.51
C      16.81      14.57      11.39
C      20.62      14.81      10.37
C      21.38      14.89      11.31
C      16.43      14.42       7.95
C      15.21      14.33       7.87
C      11.02       9.38       0.06
C      10.22      10.30       0.08
C      14.84      10.38       0.42
C      14.00       9.51       0.30
C       3.85       3.38       0.40
C       4.65       4.30       0.35
C       7.61       4.44       0.27
C       8.37       3.48       0.20
C       3.41       6.87       0.26
C      15.22       6.95       0.18
N       5.37       5.42       0.32
N      13.28       8.40       0.16
N      18.37      14.60       9.39
N      13.29      14.40       6.39
O      10.57       2.86       0.08
O       8.97       1.23       0.19
O      14.57      14.60      11.94
O      16.14      14.66      13.60
O      23.59      14.97      11.96
O      21.98      14.78      13.56
O       1.63       2.81       0.51
O       3.18       1.16       0.24
O      19.27       3.52      13.93
O      12.61       3.04       2.10
O       6.11       1.10      11.35
O      12.53      12.91      11.90
O      18.02       0.67      14.42
O       7.41       1.06      13.99
O       8.04      14.59       3.85
O       9.63      14.54       2.21
O      17.07      10.96       0.49
O      15.49      12.60       0.35
O       8.01      10.93       0.12
O       9.62      12.54       0.30
O      17.10      14.43       3.80
O      15.50      14.51       2.18
O      19.11      12.68       4.00
O      12.61       1.21       3.87
O       6.08      10.91       2.19
O      12.53      11.10      13.69
O       7.44      13.08       1.72
O      18.03      13.51       1.33
O      13.65       0.37       1.27
O      24.19      13.33      14.10
O      11.20       0.82       1.67
O      13.60      13.73      14.50
