216

Cu      12.68      20.11      23.05
Cu      11.46      21.29      20.37
Cu      14.08      22.57      21.63
Cu      20.93      31.07       5.84
Cu      22.19      29.83       3.22
Cu      19.39      28.77       4.29
Cu      29.29      14.17      29.02
Cu      27.83      12.75      31.46
Cu      30.33      11.38      30.10
Cu       4.19       3.17      11.87
Cu       5.46       4.40      14.50
Cu       3.17       5.97      12.95
H      10.26      18.25      23.98
H       8.92      19.42      20.02
H      16.54      23.03      23.59
H      15.01      19.26      25.06
H      11.12      23.10      17.78
H      14.83      24.68      19.38
H      23.33      32.94       6.79
H      24.81      31.62       2.94
H      16.90      28.34       6.22
H      18.70      31.87       7.97
H      22.61      27.92       0.72
H      18.58      26.83       1.89
H      27.61      16.86      28.84
H      25.91      15.09      32.42
H      32.32      10.58      27.75
H      31.20      14.58      26.51
H      26.88      10.34      33.36
H      30.77       8.92      32.08
H       5.92       0.52      11.58
H       7.28       1.95      15.44
H       1.24       6.82      10.55
H       2.30       2.79       9.35
H       6.29       6.61      16.63
H       2.78       8.45      14.89
H      26.12      33.93       3.07
H      27.86       0.96       5.33
H      26.02      33.73       6.14
H      27.58       1.72       2.36
H       7.62      17.10      20.19
H       5.62      16.19      22.42
H       7.60      17.43      23.25
H       6.02      15.28      19.50
H       8.34      33.18      11.68
H       9.30      31.20      13.90
H       8.15      33.22      14.76
H      10.08      31.54      10.93
H      25.31      18.17      28.86
H      24.19      20.00      31.13
H      25.27      17.89      31.93
H      23.59      19.83      28.11
H       0.01       2.92       8.08
H      32.52       5.06       6.03
H       0.31       5.99       7.95
H      31.69       2.13       6.51
H      17.72      23.02      26.02
H      19.70      20.83      27.04
H      17.73      19.95      25.83
H      19.30      23.78      27.84
H      33.45      14.43      25.14
H       0.94      12.20      23.18
H      33.21      11.36      25.16
H       1.76      15.16      23.51
H      15.80      28.22       8.74
H      13.95      30.45       9.90
H      15.95      31.30       8.72
H      14.25      27.46      10.61
H      30.77       7.57       0.28
H      28.61       5.53       1.23
H      27.62       7.65      34.18
H      31.50       6.06       2.17
H      11.09      25.46      16.53
H      13.30      26.59      14.64
H      14.17      25.46      16.67
H      10.30      27.24      14.92
H      22.40      25.82      33.75
H      20.29      24.85      31.67
H      19.34      26.14      33.56
H      23.19      23.97      32.21
H       2.67       9.56      17.39
H       4.92      11.38      18.56
H       5.75       9.37      17.40
H       1.92      11.15      19.23
C      10.12      18.68      22.99
C       9.09      18.45      22.06
C       9.45      19.25      20.96
C      15.97      22.14      23.82
C      16.27      21.10      24.72
C      15.20      20.20      24.55
C      12.00      23.36      18.37
C      13.02      24.29      18.09
C      13.91      24.15      19.17
C      23.50      32.47       5.83
C      24.57      32.65       4.93
C      24.24      31.82       3.84
C      17.54      29.17       6.52
C      17.32      30.14       7.51
C      18.44      30.99       7.39
C      21.65      27.78       1.20
C      20.56      26.98       0.81
C      19.58      27.25       1.79
C      27.31      16.23      29.67
C      26.39      16.49      30.71
C      26.46      15.34      31.51
C      31.90      11.58      27.64
C      32.15      12.53      26.63
C      31.35      13.63      27.01
C      27.85      10.18      32.89
C      28.78       9.14      33.12
C      29.86       9.47      32.27
C       6.14       1.08      12.49
C       6.97       0.72      13.57
C       6.81       1.79      14.48
C       1.64       5.82      10.44
C       1.38       4.85       9.45
C       2.16       3.75       9.84
C       5.42       6.89      16.05
C       4.58       8.01      16.17
C       3.60       7.81      15.18
C      29.12       2.59       3.61
C      30.89       3.28       4.86
C      30.31       4.43       2.98
C       4.41      14.51      20.71
C       2.57      13.92      21.92
C       3.17      12.69      20.11
C      10.89      29.93      12.14
C      11.51      28.10      13.34
C      12.70      28.71      11.49
C      22.70      21.36      29.35
C      22.04      23.18      30.56
C      20.89      22.58      28.69
C      25.73      33.50       5.11
C      26.30       0.07       4.10
C      27.44       0.91       4.32
C      28.01       1.68       3.36
C       7.93      17.61      22.23
C       7.25      17.00      21.22
C       6.09      16.18      21.43
C       5.56      15.37      20.48
C       7.93      33.54      13.73
C       8.47      32.82      12.71
C       9.27      31.65      12.90
C      10.03      31.08      11.92
C      25.56      17.65      30.90
C      25.10      18.45      29.90
C      24.29      19.61      30.11
C      23.59      20.23      29.13
C       0.50       4.97       8.31
C      33.37       3.94       7.68
C      32.54       4.09       6.53
C      31.75       3.10       6.02
C      17.41      20.97      25.60
C      18.09      22.00      26.17
C      19.24      21.82      27.01
C      19.76      22.80      27.79
C      33.00      12.38      25.48
C       0.10      13.40      24.79
C       0.92      13.20      23.63
C       1.70      14.16      23.07
C      16.21      30.28       8.42
C      15.50      29.25       8.95
C      14.37      29.44       9.82
C      13.82      28.47      10.59
C      28.64       8.01      34.00
C      29.76       7.16       0.37
C      29.58       6.03       1.23
C      30.53       5.56       2.08
C      13.15      25.17      16.95
C      12.12      25.67      16.22
C      12.30      26.50      15.06
C      11.30      27.22      14.49
C      20.35      26.33      33.94
C      21.40      25.71      33.33
C      21.25      24.87      32.18
C      22.23      24.05      31.71
C       4.73       9.12      17.09
C       3.71       9.85      17.61
C       3.91      10.98      18.47
C       2.93      11.56      19.22
N      10.60      19.89      21.22
N      11.03      19.53      22.47
N      14.33      20.67      23.64
N      14.82      21.87      23.17
N      13.44      23.22      20.03
N      12.26      22.72      19.52
N      23.08      31.19       4.08
N      22.61      31.61       5.31
N      19.25      30.55       6.41
N      18.68      29.42       5.86
N      20.06      28.11       2.70
N      21.34      28.46       2.32
N      27.34      14.46      30.99
N      27.88      15.02      29.86
N      30.68      13.34      28.15
N      31.04      12.07      28.54
N      29.58      10.60      31.60
N      28.35      11.06      32.00
N       5.97       2.71      13.96
N       5.54       2.26      12.74
N       2.84       4.04      10.97
N       2.51       5.32      11.35
N       3.84       6.66      14.52
N       4.96       6.08      15.07
N      29.90       2.39       4.69
N      31.15       4.32       4.03
N      29.29       3.58       2.71
N       3.59      14.78      21.76
N       2.30      12.87      21.12
N       4.24      13.48      19.86
N      10.64      29.11      13.19
N      12.56      27.84      12.52
N      11.90      29.76      11.25
N      22.91      22.15      30.43
N      21.02      23.44      29.71
N      21.72      21.53      28.44
