172

Al      -1.29       6.21      14.16
Al       9.18       3.45      14.09
Al       7.64       6.03      14.08
Al       1.37       0.96       0.43
Al       4.57       0.78       0.53
Al       3.28       3.51       0.54
H       5.20       1.38      19.63
H       1.12       5.39      22.41
H      -0.99       1.64      22.83
H       7.90       1.99      10.72
H       6.21       5.33       6.23
H       5.80       5.12       3.78
H       5.50       1.09       6.68
H       5.28       0.88       4.23
H       4.86       5.04       8.28
H       4.91       0.94      22.04
H       5.29       5.38      10.71
H       6.94       7.49      10.36
H      -0.94       8.56       6.30
H      -0.90       9.16       3.89
H       7.01       8.15       7.96
H      -5.05       9.86       6.53
H      -5.00      10.41       4.10
H      -0.99       9.34       8.43
H      -1.06       8.59      10.80
H      -0.12       5.82      10.56
H       7.00       4.62      22.95
H      10.80       2.18       6.17
H       0.43       5.64       8.13
H       2.15       4.69       6.72
H       2.59       4.58       4.27
H      -0.24       1.39       8.31
H      -0.86       1.60      10.74
H      -5.13       9.68      19.95
H      -4.97       9.91      22.43
H      -0.95       8.36      22.32
H      -1.10       8.15      19.84
H       0.68       5.34      19.95
H       9.29       2.59      19.21
H       8.57       1.78      20.63
H       2.82      10.35      19.44
H       7.82       0.72      18.48
H       9.51       0.41      18.04
H       9.82       1.60       9.02
H       9.33       1.67       4.55
H      10.56       0.38       4.66
H      10.32       0.02       2.12
H       2.84      10.44       3.05
H       8.97       1.17       2.13
H      -2.52       5.00      20.17
H       0.88       6.87      13.57
H       5.57      10.03      27.55
C      -1.07       3.86      16.05
C       6.60       3.90      22.23
C       6.76       4.14      20.87
C       6.25       3.25      19.89
C       5.92       2.75      22.68
C       5.74       2.56      24.07
C       6.43       3.47      18.51
C       5.56       2.47      25.27
C      -3.30       8.33      17.18
C      -4.21       9.42      20.47
C      -4.12       9.54      21.85
C       7.11       3.94      15.99
C      -1.85       8.67      21.79
C      -1.93       8.55      20.41
C      -3.12       8.91      19.74
C      -2.95       9.15      22.53
C      -2.89       9.24      23.94
C      -3.23       8.65      18.35
C      -2.87       9.34      25.16
C      -0.72       3.54      17.40
C       0.30       4.55      20.60
C       0.56       4.57      21.96
C      -3.24       7.67      15.91
C      -0.63       2.46      22.21
C      -0.89       2.43      20.84
C      -0.40       3.48      20.01
C       0.11       3.51      22.78
C       0.41       3.46      24.16
C      -0.58       3.46      18.61
C       0.69       3.30      25.33
C       6.60       3.68      10.87
C       7.22       2.64      10.18
C       7.01       2.48       8.81
C      -0.99       3.91      12.19
C       6.16       3.34       8.08
C       5.53       4.37       8.82
C       5.76       4.56      10.18
C       5.97       4.35       5.80
C       5.77       4.24       4.42
C       5.48       1.85       4.67
C       5.61       1.98       6.05
C       5.91       3.22       6.63
C       5.56       2.98       3.85
C      -3.12       8.00      10.72
C       7.02       3.94      12.28
C      -4.27       7.90       9.93
C      -4.23       8.28       8.59
C      -3.04       8.79       8.02
C      -1.90       8.91       8.84
C      -1.94       8.51      10.17
C      -1.84       8.98       5.83
C      -1.81       9.30       4.47
C      -4.13       9.99       4.60
C      -4.15       9.67       5.95
C      -3.01       9.15       6.59
C      -3.12       7.47      12.11
C      -2.96       9.81       3.85
C      -0.54       3.73      10.79
C      -0.14       4.86      10.06
C       0.17       4.75       8.71
C       0.10       3.51       8.05
C      -0.26       2.37       8.80
C      -0.59       2.48      10.15
C      -0.44       2.68       5.76
C      -0.21       2.65       4.37
C       1.73       4.08       4.70
C       6.64       3.64      17.32
C       1.48       4.13       6.06
C       0.39       3.42       6.60
C       0.91       3.34       3.83
C      -2.91       9.74      26.54
C       5.12       2.30      26.63
C       1.14       2.84      26.61
C      -2.93      10.26       2.44
C       5.28       2.80       2.40
C       1.32       3.19       2.42
C       5.59       2.09      20.36
C       5.43       1.84      21.72
C       9.25       1.65      19.78
C       8.83       0.51      18.88
C      10.09       1.11       3.98
C       9.52       0.44       2.75
S       7.97       1.21       7.99
S       7.57       5.66      20.43
O      -2.09       7.37      15.48
O       7.82       3.10      12.81
O       6.62       5.03      12.83
O       7.86       7.21      12.65
O      -2.93       5.21      14.10
O       0.81       1.66      26.91
O      -4.04      10.02      27.02
O      -1.78       9.83      27.15
O       5.45       1.23      27.23
O       4.38       3.23      27.10
O       1.88       3.63      27.31
O      -0.79       5.03      15.67
O       0.82       2.27       1.72
O      -4.02      10.64       1.93
O      -1.79      10.30       1.84
O       5.53       1.64       1.90
O       4.73       3.75       1.75
O       2.24       4.00       1.99
O       3.11       1.76       0.48
O      -1.70       2.96      15.36
O       7.90       3.09      15.46
O       6.76       5.06      15.48
O       7.76       7.39      15.32
O      -2.00       7.25      12.65
O      -0.61       4.96      12.79
O      -1.79       3.02      12.68
O      10.57       1.36      20.32
O       7.22      -0.02       7.91
O       8.58       1.78       6.82
O       9.12       0.90       9.06
O      -1.02       2.02       3.51
O       6.74       6.38      19.51
O       8.07       6.25      21.65
O       8.84       5.17      19.57
O       0.21       7.10      14.23
O      11.91       0.18       0.39
