158

Zn      12.17       7.16       0.64
Zn       4.76       2.80      13.35
Zn      -3.02       7.19       0.75
Zn      -4.57       9.98       0.68
Zn      -3.01      -1.76       6.96
Zn      12.21      -1.77       6.96
Zn      -4.53      -2.75       9.62
Zn       4.69      11.66       6.97
H      12.81       1.56       4.07
H     -14.14       7.88      12.92
H      -7.71      -1.72      12.31
H      -9.80       1.24      11.50
H      -1.88      -0.76      12.24
H       0.02       7.87      14.99
H       6.97      13.44       3.44
H     -10.23      10.26       7.15
H      -8.81       8.46       8.01
H      -6.78       8.16       4.23
H      -2.61       1.93       4.83
H      -2.61       3.73       3.12
H      -7.08       7.40       6.55
H       2.01       9.61       4.41
H       2.31       8.44       8.85
H       2.46       6.67       9.10
H       3.16       8.18       6.53
H       3.27       6.43       6.74
H       0.76       6.33       7.14
H       1.14       7.01       5.55
H       0.66       8.09       6.88
H       9.39      -0.21       9.94
H      12.72       3.78       3.48
H       8.19      -3.00      14.56
H       8.38      -2.96      12.79
H       6.11      -1.64      14.39
H       6.31      -1.52      12.63
H       6.05      -4.04      12.43
H       4.63      -3.29      13.18
H       5.80      -4.15      14.19
H       1.90      -0.86       8.54
H       0.25      -0.76       7.87
H       1.50      -3.23       9.21
H       0.11      12.01       4.77
H      -9.20      13.02       8.50
H      -8.23      13.53       6.24
H      -7.55      12.02       6.87
H      -6.59      13.51       6.92
H       0.06      -0.11      13.69
H       1.71       1.35       9.17
H       2.91       1.33      10.48
H       1.31       3.78       9.54
H       2.54       3.79      10.82
H       4.29       3.07       9.15
H       0.06       8.49       3.34
H       3.53       4.58       8.63
H       3.07       3.05       7.86
H      16.29       0.18       0.35
H       8.83      15.61       0.39
H      -2.10       0.28       2.86
H      -0.50      -0.47       2.90
H       0.47       1.51       1.63
H      -0.27       2.00       3.16
H      -1.13       2.28       1.63
H      -0.97      11.36       2.85
H     -13.19       9.45      11.53
H       4.73       5.91      10.59
H      10.47      11.35       0.57
C       4.58       5.74      13.23
C      -8.68       8.81       6.99
C      -7.70       8.21       6.16
C      -4.63       5.20       2.19
C      -7.53       8.64       4.86
C      -3.56       2.19       4.34
C      13.77       1.38       4.55
C      -3.57       3.36       3.48
C      -4.68       4.04       3.11
C       1.09      10.19       4.25
C       1.01      11.40       4.84
C       7.74      12.96       2.83
C       0.04       9.58       3.46
C      -0.93      10.27       2.82
C       4.55       8.02      10.12
C       2.10       1.45      13.16
C     -13.52       9.29      10.51
C       4.58       6.89      11.05
C       4.45       6.95      12.39
C      -8.43      -1.06      11.82
C      10.10      -0.81      10.50
C      -9.45      -0.48      12.68
C       8.50      11.88       3.36
C     -10.06       0.71      12.41
C      -0.91      -0.51      11.79
C      -0.75      -0.91      10.49
C       0.09       0.11      12.62
C      -2.00       9.62       2.05
C       1.03       1.01      12.22
C       2.12      12.00       5.61
C      -1.94      -1.35       9.70
C      13.82       0.21       5.45
C       4.79      10.50       9.68
C       9.51      11.27       2.53
C      11.23      -1.34       9.70
C     -11.13      12.01       5.54
C     -11.11       1.32      13.24
C      11.30       9.56       2.15
C       9.71      11.80       1.21
C       8.98      12.86       0.75
C       7.98      13.44       1.57
C       2.85       7.53       8.53
C       2.70       7.32       7.04
C       1.24       7.18       6.63
C     -10.09      11.38       4.67
C       7.97      -2.41      13.66
C       6.47      -2.18      13.50
C       5.70      -3.48      13.31
C       0.87      -1.25       8.62
C       0.90      -2.76       8.42
C      -7.60      13.10       7.04
C       2.01       1.83      10.11
C       2.25       3.31       9.87
C       3.34       3.52       8.82
C       7.89      15.74       0.96
C      -9.32      10.31       5.17
C      -1.14       0.20       2.31
C      -0.48       1.57       2.17
C      -8.32       9.70       4.33
C      10.25      10.19       3.03
C      -9.47       9.82       6.51
O      -4.60       8.12       0.06
O     -13.39      11.61      10.31
O      11.19      -1.03       8.46
O     -14.01       5.91      14.48
O       6.30      11.25       5.92
O      -6.24      -2.02      10.29
O     -10.98      13.24       5.84
O      -3.42      -0.17       5.89
O       4.53      10.39       8.43
O       1.92      13.19       6.02
O      -2.94      -1.83      10.34
O       2.06       1.02      14.37
O      12.63       5.74       1.92
O       3.01       2.22      12.68
O      -1.99       8.34       1.95
O       6.29       1.84      12.59
O      -6.02      10.24       1.98
O     -10.97       1.31      14.51
O      11.03       8.42       1.65
O       4.26       7.71       8.83
O      -9.71      -1.16      13.84
O       0.49      -0.82       9.95
O      -2.86      10.41       1.54
O       0.90       1.62      11.02
O       7.20      14.48       1.08
O       4.87       4.64      12.66
O      -3.49       5.55       1.73
O      13.80      -2.68       7.65
O       3.16      11.29       5.80
O      -1.87      -1.18       8.44
O      12.69      -0.34       5.70
