85

Zn       1.58       5.55      10.69
Zn       4.14       6.04       8.86
Zn       2.17       3.56       8.23
Zn       4.05       3.61      10.92
H       0.65       0.59      15.00
H       6.72       2.77       6.87
H       1.41       8.38       6.82
H       3.11       9.49       5.57
H       4.92       8.25      17.24
H       2.66       8.83      14.17
H       7.82       5.97       1.80
H       2.56       0.99      18.63
C       6.54       4.77       9.89
C       2.49       4.88      18.97
C       4.26       5.77       0.41
C      -0.48       4.41       8.88
C       3.69       5.45       4.68
C      -1.97       4.32       8.83
C       8.06       4.76       9.88
C       3.76      -0.28       9.20
C       2.48       9.70      10.28
C       2.69       8.21      10.14
C       3.49       1.18       9.33
C       2.42       4.79      17.48
C       3.44       5.26       6.15
C       2.45       4.46      13.18
C       2.37       4.58      14.69
C       1.95       3.50      15.47
C       1.98       3.60      16.87
C       1.42       2.30      14.74
C       3.19       7.96       1.96
C       8.17       3.84       7.55
C      -2.17       5.32      11.07
C       2.15       9.86       7.83
C       2.86       5.87      16.68
C       2.56      10.12      11.64
C       4.97       3.38       4.73
C       2.74       7.73       4.85
C       0.09       5.15      19.02
C       3.48       7.04      17.38
C       5.20       3.44       1.93
C       3.08       6.96      14.37
C       6.80       5.70       0.24
C       1.66       2.44      17.78
C       2.78       5.79      15.28
C       4.56       4.53       2.58
C       4.36       4.43       3.98
C       3.33       6.62       4.02
C       3.56       6.74       2.63
C       4.14       5.68       1.89
N       2.89       8.96       1.44
N      -1.86       5.79      12.10
N       4.20      -0.54      12.80
N       5.56       2.63       5.40
N      -0.95       5.36      18.53
N       5.71       2.50       1.46
O       3.00       4.67       9.64
O       3.97       6.14       6.90
O       3.51       3.91      12.75
O       2.78       4.24       6.47
O       1.50       4.99      12.53
O       1.34       2.22      13.53
O       1.00       1.31      15.56
O       8.59       4.21       6.46
O       7.13       3.00       7.75
O       2.84      10.31       6.91
O       1.33       8.83       7.74
O       1.84       7.50      10.74
O       1.72       7.51       5.52
O       3.43       8.84       4.83
O       3.10       7.47      18.46
O       4.55       7.52      16.71
O       3.72       6.87      13.33
O       2.49       8.09      14.81
O       4.86       4.68      18.83
O       6.87       5.99       1.57
O       0.61       2.32      18.40
O       2.72       1.63      17.89
O       3.90       1.72      10.40
O       6.03       5.63       9.11
O       0.20       3.53       8.26
O       5.98       3.98      10.69
O      -0.02       5.36       9.59
O       3.69       7.86       9.44
O       2.84       1.71       8.37
