228

Zn      23.24      18.73      16.98
Zn      13.04       2.00      14.31
Zn      20.04      18.66      16.84
Zn      12.86       3.79      16.94
Zn      20.01       8.26      23.71
Zn      23.23       8.38      23.87
Zn      21.51       7.26      26.34
Zn      21.73       5.53      23.69
Zn      12.87      14.16      10.10
Zn      13.06      12.41       7.41
Zn      11.40      15.16       7.43
Zn      14.59      15.20       7.58
Zn      22.41       7.83       0.55
Zn      23.90      10.67       0.70
Zn       5.94       7.94       0.71
Zn      10.70      12.80      30.58
H      19.24       3.34      21.10
H      16.99       7.01      21.15
H      17.55       2.35      19.53
H      17.62      17.13       9.76
H      15.31      15.68      13.09
H      19.26      18.14      11.37
H      23.72      12.07      21.45
H      12.88      10.75      12.95
H       9.79      15.63      12.97
H       5.14       3.48      21.24
H      27.89      11.27      27.56
H      25.64       9.88      30.97
H      26.20      10.21      26.04
H      13.77      11.32      27.72
H      30.13      18.55      31.21
H       8.98       9.21       3.30
H      26.33      12.85       3.27
H      10.60      10.30       4.87
H      20.83      12.72       3.20
H      21.91       4.13       2.99
H      18.44      14.50      19.66
H      19.03      15.79      18.64
H      13.40       5.33      10.23
H      13.13       4.29      11.60
H      24.63      18.09      10.23
H      23.78      18.71      11.62
H       9.97       6.96      20.01
H      10.82       5.91      18.91
H      18.42       8.50      30.45
H      19.46       8.22      29.07
H      30.25      18.13      25.14
H      30.42      19.82      24.73
H      16.19       9.11       4.74
H      15.15      10.27       5.52
H       7.50       1.91       5.08
H      15.61      18.09       5.78
C      24.35      18.35      14.23
C      19.23      18.13      14.02
C      21.60      16.59      18.25
C      10.25       3.34      18.26
C      15.35       3.47      18.52
C      12.92       4.96      14.21
C      21.61      10.39      22.43
C      24.01       8.83      26.67
C      18.93       8.69      26.44
C      21.63       4.30      26.37
C      19.22       5.85      22.16
C      24.34       6.04      22.42
C      13.01      11.22      10.13
C      10.57      12.76       5.89
C      10.27      15.55      10.14
C      13.05      17.25       6.11
C      15.38      15.73      10.38
C      15.67      12.87       6.10
C      21.31      10.15       2.01
C       6.73      10.33       2.25
C       4.34       5.83       2.02
C      13.30      11.40      30.55
C      27.87      11.26      30.28
C      30.25      15.76      30.54
C      16.32       4.11      19.46
C      18.22       5.23      21.22
C      16.20       5.43      19.94
C      18.38       3.92      20.77
C      17.12       5.99      20.80
C      17.44       3.37      19.90
C      18.22      17.50      13.12
C      16.37      16.35      11.32
C      17.09      16.79      13.57
C      17.48      17.04      10.83
C      16.17      16.22      12.70
C      18.39      17.60      11.72
C      20.48      14.64      19.46
C      22.70      12.35      21.20
C      21.61      15.38      19.04
C      21.60      11.61      21.62
C      22.30      13.46      20.42
C      20.90      13.54      20.25
C      13.00       6.26      12.02
C      12.94       9.88      12.30
C      12.92       6.17      13.42
C      13.01       9.98      10.92
C      12.94       8.53      12.71
C      13.01       7.63      11.63
C      25.55      17.83      12.04
C      28.71      16.07      12.32
C      25.44      17.82      13.44
C      28.84      16.08      10.94
C      27.52      16.70      12.73
C      26.75      17.18      11.65
C       9.07       5.17      19.58
C       5.89       4.24      21.09
C       9.17       3.87      19.05
C       5.78       5.52      21.61
C       7.09       4.10      20.36
C       7.86       5.28      20.34
C      24.98       9.45      27.63
C      26.87      10.64      29.36
C      24.85       9.38      29.03
C      27.03      10.73      27.97
C      25.77       9.96      29.89
C      26.10      10.15      27.13
C      17.74       9.21      28.64
C      14.53      10.88      28.37
C      17.85       9.24      27.24
C      14.40      10.86      29.75
C      15.74      10.28      27.96
C      16.51       9.82      29.04
C      30.38      19.44      26.72
C      30.19      18.29      30.16
C      30.31      20.77      27.18
C      30.25      16.98      29.72
C      30.23      19.19      29.07
C      30.32      18.54      27.82
C       9.56      12.16       4.95
C       7.72      10.96       3.18
C       8.43      12.86       4.48
C       8.83      10.24       3.64
C       7.52      12.28       3.61
C       9.73      10.84       4.51
C      16.86      11.05       4.77
C      20.08      11.95       3.35
C      16.75      12.35       5.30
C      20.20      10.68       2.82
C      18.87      12.09       4.06
C      18.09      10.92       4.07
C       5.50       1.52       4.89
C       3.26       3.86       3.24
C       4.38       0.77       5.30
C       4.35       4.61       2.83
C       3.67       2.74       4.00
C       5.07       2.66       4.14
S      23.13      14.72      19.60
S      20.08      12.26      21.06
S      12.85       7.72      14.23
S      13.08       8.45      10.11
S      26.78      17.04      14.25
S      27.51      16.87      10.13
S       7.82       2.83      19.46
S       7.11       6.55      21.22
S      16.49      10.00      26.44
S      15.75      10.12      30.56
S      30.21      20.91      28.92
S      30.36      16.83      27.99
S      18.11      13.38       4.92
S      18.85       9.64       3.19
S       2.85       1.44       4.77
S       5.88       3.96       3.35
N      19.19      14.91      19.12
N      13.01       5.20      11.16
N      24.66      18.42      11.19
N       9.96       6.17      19.37
N      18.68       8.73      29.50
N      30.51      19.07      25.41
N      15.92      10.07       4.88
N       6.79       1.20       5.14
O      21.64      19.63      16.26
O      24.43      18.21      15.51
O      20.24      18.67      13.46
O      20.45      17.04      17.87
O      23.37      18.90      13.59
O      22.74      17.13      17.99
O      19.00      18.08      15.27
O      18.85      19.77      17.92
O      14.35       4.16      18.16
O      11.22       4.15      17.96
O      15.60       2.27      18.17
O      12.96       3.83      13.57
O      12.89       5.10      15.48
O      21.62       7.36      24.39
O      20.47       9.87      22.69
O      24.24       9.02      25.43
O      19.91       8.13      27.08
O      22.76       9.95      22.80
O      18.82       8.80      25.17
O      23.04       8.17      27.17
O      21.51       5.42      26.99
O      20.20       5.11      22.52
O      21.73       4.15      25.09
O      19.01       7.05      22.51
O      24.44       7.26      22.81
O      23.37       5.24      22.66
O      12.98      14.23       8.14
O      12.92      12.32      10.77
O      11.52      11.99       6.25
O      10.18      15.70       8.87
O      13.09      11.07       8.86
O      11.22      14.98      10.78
O      10.40      13.96       6.25
O      11.91      16.74       6.40
O      15.60      15.87       9.13
O      14.20      16.79       6.49
O      14.40      15.11      10.91
O      14.68      12.07       6.35
O      15.78      14.08       6.52
O      10.59      12.75      32.54
O      21.21       8.93       1.64
O       5.75      11.06       1.89
O       5.48       6.35       1.76
O      22.26      10.96       1.75
O      22.87       6.26       1.65
O       6.96       9.13       1.89
O      13.40      11.27      31.82
O      28.86      11.86      29.75
O      12.34      11.96      29.91
O      27.66      11.12      31.54
O      30.17      15.92      31.81
O      30.33      14.65      29.91
F      15.16       6.22      19.57
F      16.85      16.63      14.90
F      23.80       8.74      29.61
F       8.18      14.14       4.85
