144

Gd      17.59      11.66       2.23
Gd       5.18       0.00      13.84
H      11.20      10.65       3.42
H      17.45      10.66      12.65
H      11.57       1.01      12.65
H       5.33       1.00       3.42
H      14.98       9.59       1.29
H      13.67       9.60      14.79
H       7.80       2.07      14.78
H       9.10       2.06       1.28
H       8.88       7.10       2.55
H       8.01       7.10      13.53
H      13.89       4.56      13.52
H      14.77       4.56       2.54
H      12.69       9.49       0.38
H      15.97       9.49      15.69
H      10.09       2.17      15.69
H       6.81       2.17       0.38
H       8.01       9.49       7.14
H       8.89       9.49       8.93
H      14.77       2.17       8.93
H      13.88       2.17       7.14
H       6.91       9.60       4.93
H       9.99       9.60      11.14
H      15.87       2.06      11.14
H      12.79       2.06       4.93
H      10.22       6.04       3.53
H      18.43       6.04      12.54
H      12.56       5.62      12.54
H       4.34       5.62       3.53
H      12.20       4.63       3.92
H      16.46       4.63      12.14
H      10.58       7.03      12.15
H       6.32       7.03       3.93
H      14.74       7.91       3.91
H      13.91       7.91      12.16
H       8.04       3.75      12.16
H       8.86       3.75       3.91
H      12.89       9.46       3.43
H      15.76       9.46      12.65
H       9.89       2.20      12.64
H       7.01       2.20       3.42
H       6.99       8.59       1.98
H       9.90       8.58      14.09
H      15.78       3.08      14.09
H      12.87       3.08       1.98
H      14.50      11.66       4.02
H       8.28       0.00      12.05
H       9.87       0.00       6.11
H      12.90      11.66       9.96
H      11.95      11.66       8.20
H      10.83       0.00       7.87
H      10.85      11.66       5.99
H      11.92       0.00      10.08
C      10.29      10.15       3.08
C      18.36      10.16      12.99
C      12.48       1.51      12.99
C       4.42       1.50       3.08
C      14.00       0.00       7.37
C       8.77      11.66       8.70
C      14.43      10.51       1.06
C      14.22      10.51      15.01
C       8.35       1.15      15.01
C       8.55       1.15       1.06
C       9.02       8.18       2.60
C      19.63       8.18      13.47
C      13.76       3.48      13.47
C       3.14       3.48       2.60
C      13.14      10.47       0.55
C      15.52      10.47      15.52
C       9.64       1.19      15.52
C       7.26       1.19       0.55
C       9.17      10.92       2.73
C      19.48      10.92      13.34
C      13.60       0.74      13.34
C       3.29       0.74       2.73
C      11.37       7.89       3.39
C      17.28       7.89      12.68
C      11.40       3.77      12.68
C       5.50       3.77       3.39
C       7.80      10.47       6.70
C       9.10      10.47       9.37
C      14.98       1.19       9.37
C      13.67       1.19       6.70
C      12.45      11.66       0.28
C      10.33       0.00      15.79
C       7.19      10.51       5.45
C       9.71      10.51      10.62
C      15.59       1.15      10.62
C      13.07       1.15       5.45
C      11.21       6.50       3.57
C      17.45       6.51      12.50
C      11.57       5.16      12.50
C       5.33       5.15       3.57
C      12.32       5.71       3.82
C      16.33       5.71      12.25
C      10.45       5.95      12.25
C       6.45       5.95       3.82
C      13.72       7.52       3.80
C      14.93       7.52      12.26
C       9.05       4.14      12.27
C       7.85       4.14       3.81
C      12.67       8.39       3.53
C      15.98       8.40      12.54
C      10.10       3.27      12.54
C       6.80       3.26       3.53
C       7.95       9.00       2.29
C       8.95       9.00      13.78
C      14.83       2.66      13.78
C      13.83       2.66       2.29
C      10.23       8.75       3.03
C      18.42       8.75      13.04
C      12.55       2.91      13.04
C       4.35       2.91       3.03
C      13.97      11.66       7.38
C       8.80       0.00       8.69
C      13.96      11.66       4.96
C       8.82       0.00      11.11
C      14.67      11.66       6.16
C       8.11       0.00       9.91
C      12.57      11.66       7.31
C      10.21       0.00       8.76
C      11.95      11.66       6.06
C      10.83       0.00      10.01
N       8.00      10.34       2.36
N      20.65      10.34      13.71
N      14.77       1.32      13.71
N       2.13       1.32       2.37
N      15.08      11.66       1.32
N       7.69       0.00      14.75
N      13.57       6.19       3.92
N      15.08       6.19      12.14
N       9.20       5.47      12.15
N       7.70       5.47       3.93
N      12.76       0.00       4.82
N      10.02      11.66      11.25
N      12.62      11.66       4.90
N      10.16       0.00      11.17
Cl      11.02       9.99      16.07
Cl      11.76       1.67       0.00
Cl      10.67       2.09       3.47
Cl       6.22       2.09      12.60
Cl      12.10       9.57      12.60
Cl      16.55       9.57       3.47
