186

Zr      23.47      12.62      15.35
Zr      19.94      30.79      15.35
Zr      19.94      12.62      15.35
Zr      23.47      30.79      15.35
Zr      10.85      21.70       2.50
Zr      21.70      10.85      12.85
H      10.85       2.78       1.97
H      10.85      18.92       1.97
H      18.92      10.85      13.38
H      24.49      10.85      13.38
H      14.95       4.03       2.86
H      16.23       5.37       4.54
H      14.13      25.00       7.69
H      18.41       7.57       7.66
H      17.68      28.46      12.49
H      16.34      27.18      10.81
H      25.73      14.95      12.49
H      27.07      16.23      10.81
H      25.00      14.13       7.66
H       7.57      18.41       7.69
H       6.75      17.68       2.86
H       5.48      16.34       4.54
H      12.91      19.72       5.75
H      14.06      18.50       7.59
H      16.28      16.26       4.65
H      16.26      16.28      10.70
H      19.72      12.91       9.60
H      18.50      14.06       7.75
H      23.69       8.80       9.60
H      24.91       7.64       7.75
H      27.15      27.12      10.70
H       5.42       5.44       4.65
H       8.79      23.69       5.75
H       7.64      24.91       7.60
H      19.66      16.94      15.30
H      19.54      19.43      15.34
H      13.00       8.72       0.01
H       8.70      12.98       0.01
H      23.74      26.47      15.30
H      23.87      23.98      15.34
H      16.94      19.66       0.05
H      19.43      19.54       0.01
H      30.42      13.00      15.34
H      12.98      30.40      15.34
H       4.77       2.04       0.05
H       2.27       2.16       0.01
C      13.12      23.89       3.21
C       8.58      19.52       3.21
C      19.52       8.58      12.14
C      23.89      13.12      12.14
C      21.75      15.35      15.29
C      15.35       0.04       0.06
C      21.66      28.06      15.29
C       6.35      21.66       0.06
C       8.54       2.23       3.15
C      19.48      13.16      12.20
C      23.93      30.24      12.20
C      13.16      19.47       3.15
C      13.83      24.62       4.30
C      14.79       3.88       3.93
C      15.49       4.63       4.86
C      15.27       4.42       6.24
C      14.32      25.16       6.63
C      13.61      24.42       5.69
C      15.97       5.14       7.23
C      16.56      27.44       8.12
C      17.28      28.14       9.11
C      18.24       7.39       8.72
C      18.98       8.09       9.66
C      18.79       7.87      11.04
C      17.82      28.62      11.42
C      17.08      27.91      10.49
C      24.62      13.83      11.04
C      25.59      14.79      11.42
C      26.33      15.49      10.49
C      26.12      15.27       9.11
C      25.16      14.32       8.72
C      24.42      13.61       9.66
C      26.85      15.97       8.12
C       5.74      16.56       7.23
C       6.44      17.28       6.24
C       7.39      18.24       6.63
C       8.09      18.98       5.69
C       7.87      18.79       4.30
C       6.92      17.82       3.93
C       6.21      17.08       4.86
C      13.93      18.69       4.17
C      13.66      18.95       5.53
C      14.30      18.28       6.55
C      15.26      17.29       6.25
C      15.54      17.02       4.90
C      14.89      17.70       3.87
C      15.95      16.58       7.25
C      16.58      15.95       8.09
C      17.29      15.26       9.10
C      17.02      15.54      10.45
C      17.70      14.89      11.47
C      18.69      13.93      11.18
C      18.95      13.65       9.82
C      18.28      14.29       8.79
C      24.71      29.48      11.18
C      24.45       8.05       9.82
C      25.13       7.41       8.79
C      26.12       6.45       9.10
C      26.39      27.86      10.45
C      25.71      28.51      11.47
C      26.83       5.76       8.09
C       5.76      26.83       7.25
C       6.45      26.11       6.25
C       6.16       4.69       4.90
C       6.81       4.00       3.87
C       7.78       3.01       4.17
C       8.05      24.45       5.53
C       7.41      25.13       6.55
C      21.80      16.84      15.30
C      20.57      17.54      15.31
C      20.50      18.92      15.33
C      10.84       8.83       0.00
C      22.93      19.00      15.34
C      22.99      17.61      15.32
C      10.83      10.24       0.02
C      10.87      11.46       0.02
C      10.86      12.88       0.00
C      20.48      24.40      15.34
C      20.42      25.79      15.32
C      21.61      26.56      15.30
C      22.84      25.87      15.31
C      22.90      24.48      15.33
C      16.84       0.09       0.05
C      17.54      20.57       0.04
C      18.92      20.50       0.01
C      30.53      32.55      15.34
C      19.00       1.23       0.00
C      17.61       1.28       0.03
C      31.94      32.54      15.33
C      11.46      10.87      15.33
C      12.88      10.86      15.34
C       2.70      20.48       0.00
C       4.09      20.42       0.03
C       4.86      21.61       0.05
C       4.17       1.13       0.04
C       2.78       1.20       0.01
Cl      12.48      23.29       6.35
Cl      20.12       9.23       9.00
Cl      23.29      12.47       9.00
Cl       9.23      20.12       6.35
Cl      15.36      17.23       2.27
Cl      17.23      15.36      13.08
Cl      26.17      28.05      13.08
Cl       6.35       4.47       2.27
Cl      24.59      16.94      15.32
Cl      18.82      26.46      15.32
Cl      16.94       2.88       0.03
Cl       4.76      18.82       0.03
O      13.41       2.50       2.01
O       8.30      19.20       2.01
O      19.20      30.00      13.34
O      24.20      13.41      13.34
O      20.59      14.80      15.31
O      14.80      20.59       0.04
O      22.81      28.61      15.31
O       6.91       1.11       0.04
O       9.41      23.09       3.57
O      20.31      12.30      11.77
O      23.09       9.40      11.77
O      12.30      20.31       3.57
O      19.24      13.41      13.42
O      24.17      29.99      13.42
O      13.41      19.24       1.92
O       8.29       2.46       1.92
O      22.86      14.72      15.28
O       6.98      20.55       0.07
O      20.55      28.68      15.28
O      14.72       1.15       0.07
O      23.01      12.26      11.79
O      12.26      23.01       3.55
O       9.44      20.39       3.55
O      20.39       9.44      11.79
O      23.69      10.85      13.94
O      19.71      10.85      13.94
O      10.85      19.71       1.41
O      10.85       1.99       1.41
O       9.39      21.70       1.04
O      12.32      21.70       1.04
O      21.70      31.09      14.31
O      21.70      12.32      14.31
