110

Zn       3.32       5.46      11.81
Zn       6.08       5.45      11.93
H       7.19       4.03      22.36
H       6.36       6.99      15.89
H       2.72       4.75      16.27
H       6.41       1.18      13.29
H       1.78       9.72      10.61
H       2.85       1.28       9.34
H       1.69       1.22      10.70
H       8.37       4.56      13.77
H       1.19       4.53      13.62
H       1.02       7.55       9.41
H       8.25       7.75       9.71
H       8.00       6.20       8.85
H       3.07       8.88       1.37
H       2.62       8.96      22.39
H       5.93       8.14       5.57
H       5.75       7.70       8.03
H       4.33       4.22       4.79
H       6.41       7.32      18.38
H       3.01       2.74      18.62
H       3.77       3.43      20.06
H       2.05       2.99      20.10
H       2.24       5.47      19.85
H       1.54       4.77      18.40
H       1.13       9.38       8.01
H       1.99      10.87       7.57
H       2.47       9.32       6.84
H       4.10       9.99       8.62
H       3.29       8.49       9.05
H       0.82       3.74       9.03
H       9.03       4.26       8.22
H       0.74       3.80       7.26
H       0.61       6.29       7.29
H       2.04       5.75       8.18
H       5.75       2.23       6.68
H       5.85       2.75       8.38
H       4.78       1.40       7.92
H       3.44       3.50       8.29
H       3.33       2.96       6.61
C       4.75       2.89      11.95
C       6.58       4.74      22.92
C       7.08       4.69       0.78
C       6.27       5.56       1.52
C       5.38       6.43       0.82
C       4.53       7.33       1.51
C       3.71       8.20       0.80
C       3.27       8.29      22.95
C       6.29       5.60       3.01
C       4.44       7.30       2.99
C       5.54       7.19       5.94
C       4.84       5.51       9.26
C       5.44       6.94       7.31
C       4.94       5.72       7.78
C       4.52       4.72       6.88
C       4.63       4.98       5.51
C       5.14       6.20       5.06
C       5.61       6.76      17.90
C       5.58       6.57      16.53
C       4.55       5.83      15.95
C       3.53       5.31      16.75
C       3.54       5.46      18.14
C       4.72       8.03      11.86
C       4.60       6.19      18.69
C       3.76       0.68      11.27
C       4.71       1.40      11.99
C       5.65       0.66      12.72
C       5.70      10.26      12.71
C       4.75       9.52      11.96
C       3.82      10.29      11.27
C       2.70      10.19      10.23
C       2.61       0.78      10.29
C       8.80       6.00      10.89
C       4.56       5.62      14.46
C       8.89       4.97      12.90
C       0.59       4.94      12.81
C       0.49       5.92      10.78
C       0.50       6.58       9.40
C       8.62       6.72       9.59
C       3.96       7.32      20.77
C       5.63       5.46      20.76
C       5.72       5.58      22.24
C       4.91       6.50      22.95
C       4.05       7.38      22.25
C       2.47       4.83      18.99
C       2.85       3.42      19.48
C       3.12       9.57       8.90
C       2.12       9.80       7.77
C       0.95       5.75       8.20
C       0.43       4.32       8.18
C       4.02       3.37       7.36
C       5.17       2.38       7.60
N       4.72       6.32      20.13
N       5.28       6.38       3.63
N       8.12       5.52      11.93
N       1.27       5.42      11.74
Cl       6.89       9.44      13.68
Cl       8.20       3.59       1.48
O       3.68       3.47      11.58
O       6.30       4.65      20.13
O       7.10       4.99       3.70
O       3.67       8.02       3.62
O       5.84       3.46      12.28
O       3.71       5.76       9.79
O       5.89       5.14       9.87
O       3.60       7.48      12.08
O       5.80       7.45      11.52
O       3.48       5.25      13.89
O       5.67       5.85      13.88
O       3.24       8.08      20.12
