52

Cu       5.03       6.53       6.53
Si       0.98       6.53       6.53
H       2.95       6.53       4.41
H       2.85       6.53       1.91
H       7.16       6.53       1.87
H       7.11       6.53       4.38
H       2.89       6.53      11.20
H       7.21       6.53      11.15
H       7.10       6.53       8.65
H       2.94       6.53       8.68
H       2.95       4.41       6.53
H       2.85       1.91       6.53
H       7.16       1.87       6.53
H       7.11       4.38       6.53
H       2.89      11.20       6.53
H       7.21      11.15       6.53
H       7.10       8.65       6.53
H       2.94       8.68       6.53
C       3.86       6.53       3.81
C       3.81       6.53       2.43
C       5.01       6.53       1.71
C       6.22       6.53       2.41
C       6.19       6.53       3.80
C       3.84       6.53      10.66
C       5.05       6.53      11.36
C       6.25       6.53      10.63
C       6.19       6.53       9.25
C       3.86       6.53       9.27
C       3.86       3.81       6.53
C       3.81       2.43       6.53
C       5.01       1.71       6.53
C       6.22       2.41       6.53
C       6.19       3.80       6.53
C       3.84      10.66       6.53
C       5.05      11.36       6.53
C       6.25      10.63       6.53
C       6.19       9.25       6.53
C       3.86       9.26       6.53
N       5.03       6.53       4.49
N       5.10       6.53       0.29
N       4.96       6.53      12.77
N       5.02       6.53       8.58
N       5.03       4.48       6.53
N       5.10       0.29       6.53
N       4.96      12.77       6.53
N       5.02       8.58       6.53
F       2.72       6.54       6.55
F       7.33       6.52       6.52
F       9.07       7.74       5.32
F       0.98       5.32       7.74
F       1.00       5.32       5.32
F       9.06       7.74       7.74
