250

Zn      22.72      -3.14      10.84
Zn      19.51      -3.14      10.84
Zn      21.11      -4.06      13.46
Zn      35.19      18.47      10.84
Zn      19.51      11.26       0.66
Zn      35.19       4.06      21.02
Zn      22.72      11.27       0.66
Zn      21.11      14.04       0.66
H      18.47      16.19       3.04
H      16.32      12.48       3.04
H      39.98      20.03       8.46
H      37.84      16.31       8.46
H      37.83       2.53      18.20
H      39.98       1.30      21.70
H      16.32      -1.30      12.78
H      18.47      -2.53      16.28
H      32.54       2.53      18.20
H      30.40       1.29      21.70
H      25.90      -1.30      12.78
H      23.76      -2.54      16.28
H      23.76      16.19       3.04
H      25.90      12.48       3.04
H      30.40      20.03       8.46
H      32.54      16.32       8.46
H      23.26       7.90       3.03
H      18.97       7.90       3.04
H      23.26       0.23       8.46
H      18.97       0.23       8.46
H      35.19       7.12      18.20
H      35.19       9.59      21.70
H      35.19      14.79      12.78
H      35.19      17.26      16.28
H      14.58      12.32       5.13
H      13.52      13.75       5.19
H      13.70      12.83       3.68
H      16.85      18.29       3.69
H      15.97      17.98       5.20
H      17.74      17.78       5.13
H      38.57      14.72       6.36
H      40.33      14.52       6.30
H      39.45      14.21       7.81
H      42.61      19.67       7.81
H      42.78      18.76       6.29
H      41.72      20.19       6.37
H      41.72      -0.73      21.15
H      42.78      -0.31      19.79
H      42.60       0.80      21.16
H      39.46       2.62      16.00
H      40.33       1.09      15.79
H      38.56       1.09      16.00
H      17.73      -1.09      18.48
H      15.97      -1.10      18.69
H      16.85      -2.62      18.47
H      13.69      -0.80      13.33
H      13.52       0.32      14.69
H      14.58       0.73      13.32
H      27.77       0.80      21.15
H      27.60      -0.33      19.79
H      28.66      -0.73      21.16
H      31.81       1.08      16.00
H      30.04       1.09      15.79
H      30.93       2.62      16.01
H      25.38      -2.63      18.48
H      26.25      -1.09      18.69
H      24.49      -1.10      18.48
H      27.65       0.73      13.33
H      28.71       0.31      14.70
H      28.53      -0.81      13.33
H      28.54      12.83       3.69
H      28.70      13.74       5.20
H      27.65      12.32       5.13
H      24.50      17.78       5.13
H      26.26      17.99       5.19
H      25.38      18.29       3.68
H      30.92      14.21       7.81
H      30.05      14.52       6.29
H      31.81      14.72       6.37
H      28.66      20.18       6.36
H      27.60      18.76       6.30
H      27.77      19.68       7.81
H      17.97       5.44       3.69
H      18.67       4.84       5.20
H      17.96       6.47       5.13
H      24.27       6.47       5.13
H      23.57       4.84       5.19
H      24.27       5.45       3.68
H      17.97       2.69       7.81
H      18.67       3.29       6.29
H      17.96       1.66       6.36
H      24.27       1.66       6.36
H      23.56       3.29       6.30
H      24.27       2.68       7.81
H      36.08      12.12      21.15
H      35.19      12.83      19.79
H      34.31      12.12      21.16
H      34.31       8.48      16.00
H      35.20      10.00      15.79
H      36.08       8.47      16.00
H      34.30      15.90      18.48
H      35.20      14.38      18.69
H      36.07      15.91      18.48
H      36.08      12.26      13.33
H      35.19      11.55      14.69
H      34.31      12.27      13.32
C      21.12      -1.10       9.40
C      18.55      -2.58      13.58
C      23.67      -2.59      13.59
C      35.19      17.36      13.59
C      37.75      18.84       9.40
C      32.63      18.84       9.40
C      32.63       2.58      20.90
C      37.75       2.58      20.89
C      21.12       9.23       2.09
C      23.68      13.67       2.09
C      18.55      13.67       2.09
C      35.19       7.02      20.89
C      17.50      14.28       2.95
C      17.60      15.61       3.36
C      16.63      16.20       4.16
C      15.51      15.42       4.57
C      15.40      14.06       4.16
C      16.39      13.52       3.36
C      14.51      16.00       5.39
C      41.79      16.50       6.10
C      40.79      17.08       6.92
C      40.91      18.44       7.33
C      39.91      18.99       8.13
C      38.81      18.23       8.54
C      38.70      16.89       8.13
C      39.67      16.30       7.33
C      38.80       1.97      20.03
C      38.70       2.04      18.64
C      39.67       1.47      17.82
C      40.79       0.83      18.41
C      40.90       0.76      19.83
C      39.91       1.34      20.61
C      41.79       0.25      17.59
C      14.51      -0.25      16.89
C      15.51      -0.83      16.07
C      15.40      -0.76      14.65
C      16.39      -1.34      13.86
C      17.50      -1.97      14.44
C      17.60      -2.04      15.84
C      16.63      -1.48      16.66
C      31.57       1.97      20.04
C      31.68       2.03      18.64
C      30.71       1.47      17.82
C      29.59       0.82      18.41
C      29.47       0.76      19.83
C      30.47       1.33      20.62
C      28.58       0.24      17.60
C      27.72      -0.26      16.89
C      26.71      -0.83      16.07
C      26.83      -0.77      14.65
C      25.83      -1.34      13.87
C      24.73      -1.98      14.45
C      24.62      -2.04      15.84
C      25.59      -1.48      16.67
C      24.73      14.28       2.95
C      24.63      15.61       3.36
C      25.60      16.20       4.16
C      26.72      15.42       4.57
C      26.83      14.06       4.16
C      25.83      13.52       3.36
C      27.72      16.00       5.39
C      28.59      16.50       6.10
C      29.59      17.08       6.92
C      29.47      18.44       7.33
C      30.47      18.99       8.13
C      31.57      18.23       8.54
C      31.68      16.90       8.13
C      30.71      16.30       7.33
C      21.12       8.01       2.95
C      22.33       7.44       3.36
C      22.35       6.30       4.16
C      21.12       5.72       4.57
C      19.88       6.30       4.16
C      19.91       7.44       3.36
C      21.12       4.56       5.39
C      21.12       3.56       6.10
C      21.12       2.40       6.92
C      22.35       1.82       7.33
C      22.33       0.69       8.13
C      21.12       0.11       8.54
C      19.91       0.69       8.13
C      19.88       1.82       7.33
C      35.19       8.24      20.03
C      35.19       8.12      18.64
C      35.19       9.24      17.82
C      35.19      10.53      18.41
C      35.19      10.66      19.83
C      35.19       9.51      20.61
C      35.19      11.69      17.59
C      35.19      12.69      16.89
C      35.19      13.85      16.07
C      35.19      13.72      14.65
C      35.19      14.87      13.87
C      35.19      16.14      14.45
C      35.19      16.26      15.84
C      35.19      15.14      16.66
C      14.23      13.20       4.57
C      16.80      17.64       4.57
C      39.50      14.86       6.92
C      42.07      19.30       6.92
C      42.07       0.09      20.51
C      39.50       1.57      16.32
C      16.80      -1.57      18.16
C      14.23      -0.09      13.97
C      28.31       0.09      20.51
C      30.87       1.57      16.33
C      25.43      -1.58      18.16
C      27.99      -0.10      13.97
C      27.99      13.20       4.57
C      25.43      17.64       4.57
C      30.88      14.87       6.92
C      28.31      19.30       6.92
C      18.55       5.73       4.57
C      23.68       5.73       4.57
C      18.55       2.40       6.92
C      23.68       2.40       6.92
C      35.19      12.01      20.51
C      35.19       9.05      16.32
C      35.19      15.33      18.16
C      35.19      12.37      13.97
O      21.11      -4.06      11.49
O      22.25      -1.58       9.74
O      18.39      -2.49      12.32
O      22.69      -3.15      14.18
O      19.98      -1.58       9.73
O      23.84      -2.49      12.32
O      19.53      -3.15      14.18
O      35.19      18.49      14.18
O      36.77      18.09       9.74
O      35.19      17.17      12.32
O      37.91      20.06       9.74
O      32.47      20.06       9.73
O      33.61      18.09       9.74
O      21.11      12.19       0.00
O      32.47       2.49      22.16
O      36.77       3.15      20.30
O      22.26       9.70       1.76
O      33.60       3.15      20.30
O      19.98       9.70       1.76
O      37.91       2.49      22.16
O      23.84      12.45       1.76
O      19.53      14.42       1.76
O      22.70      14.42       1.76
O      18.39      12.44       1.76
O      35.19       5.89      20.30
O      35.19       7.21      22.16
