70

Zn       5.12       5.11       7.60
Zn       5.04       7.95       7.81
H       3.23       2.89       7.12
H       7.27       3.10       7.94
H       0.51       5.38       8.02
H       9.65       5.98       7.04
H       5.92       4.29      14.31
H       4.79       4.95       0.87
H       5.80       4.39      11.82
H       4.80       4.78       3.35
H       4.25       8.38      12.04
H       5.83       8.93       3.65
H       4.30       8.27      14.53
H       5.86       9.11       1.17
H       6.28      12.78       9.15
H       3.27      12.52       6.05
H       3.26       0.38       7.10
H       7.48       0.59       7.97
H       1.84       8.77       8.22
H       0.27       9.51       8.44
H      10.14       8.46      10.28
H       8.53       8.18       9.72
H       6.84       9.20       9.09
H       7.30      10.73       9.74
H       3.13       8.89       6.25
H       2.55      10.34       5.49
C       4.96       6.45      10.29
C       5.27       6.71       5.14
C       5.11       6.27      14.60
C       5.32       7.04       0.83
C       5.65      12.21       8.47
C       3.95      12.06       6.77
C       5.71      10.81       8.49
C       4.03      10.66       6.86
C       4.77      12.84       7.59
C       4.17       0.94       7.28
C       6.51       1.06       7.79
C       4.14       2.33       7.29
C       6.41       2.44       7.77
C       5.38       0.27       7.55
C       7.72       6.53       7.87
C       2.44       6.32       7.70
C       0.30       7.47       8.30
C       9.98       7.42       8.54
C       1.01       6.34       7.98
C       9.18       6.62       7.78
C       5.53       5.18      13.82
C       5.04       5.82       1.47
C       5.48       5.23      12.43
C       5.03       5.72       2.86
C       5.01       6.38      11.78
C       5.31       6.84       3.65
C       4.61       7.48      12.55
C       5.60       8.06       3.03
C       4.65       7.43      13.94
C       5.61       8.16       1.64
N       4.89      10.04       7.71
N       5.24       3.07       7.53
N       0.87       8.70       8.50
N       9.52       8.31       9.49
N       6.57      10.16       9.32
N       3.24       9.89       6.07
O       5.26       5.39       9.64
O       4.97       5.57       5.61
O       4.64       7.57       9.77
O       5.52       7.76       5.83
O       7.17       5.48       7.43
O       3.05       5.20       7.75
O       7.07       7.53       8.37
O       3.04       7.45       7.44
