150

Zn       1.66       3.39       8.28
Zn       4.63       6.89       8.46
Zn       2.03       6.12       6.40
Zn       4.25       4.19      10.64
H       0.47       1.36       6.05
H       6.99      -5.53      11.63
H       7.92      -3.08      10.55
H      -5.41       6.19       7.62
H      12.29       6.00       7.71
H      -7.28       3.94      10.81
H      12.80       3.90       9.05
H      -4.93       4.22       9.15
H      -4.99       4.44      10.90
H       3.65       4.60       4.20
H      -7.50       6.17      12.00
H       2.82       9.27       9.69
H      -5.63       8.13      10.79
H      -7.89       7.54       8.54
H      -5.57       7.81       8.29
H      -5.24       6.79      11.88
H      -0.50      -1.06      15.33
H       2.92      -0.19      16.66
H       1.21       0.27      16.71
H       7.30       8.27       1.76
H       6.02       1.81       9.82
H       2.36      -3.46      14.88
H       2.53       5.63      12.75
H       3.49      -2.57      15.90
H       1.32      -4.47      16.75
H      -0.08      -2.72      14.89
H      -0.83      -3.35      17.01
H       8.90       5.03       0.60
H       5.71       8.31      16.06
H       0.32      -0.22       0.69
H      -6.40      -6.87      16.97
H       5.57      10.50      15.17
H      16.97      -0.34       2.06
H       4.71       9.05      11.20
H      16.48       1.35       1.80
H      11.77      17.72       1.84
H       9.84      -7.96      16.57
H       7.56       3.99      11.57
H      -0.66       7.51       7.52
H       5.60      -3.64       7.33
H       0.73      14.40       8.03
H      -7.90       7.63      11.09
H       6.88       7.00       5.80
H      11.57      -7.40      15.08
H      -0.51       4.31      10.44
H       2.19       0.16       8.63
H       0.70       9.23       5.92
H      -2.86      12.67       8.43
H       7.73       6.40       7.98
H       4.34      -4.81      10.94
C       0.61       2.35       5.62
C      -0.35       5.03       9.64
C       3.36       2.05      12.59
C       7.44       5.81       8.84
C       1.37       9.07       6.76
C       2.22       1.24      12.75
C       1.42       9.73       8.00
C      -1.16       6.08       9.18
C       3.51       7.65      12.51
C       7.39      -4.44       8.67
C       5.92      -4.08       8.27
C       8.27       5.24       9.82
C       4.79      -0.90       9.55
C       0.64      10.80       8.48
C       7.21      -3.76      10.06
C       4.32       5.20       4.80
C       5.73      -3.35       9.67
C       6.68      -5.10      10.67
C      -0.66      12.95       9.27
C       5.21      -4.72      10.28
C      -2.15      13.35       8.89
C       5.19      -2.04       9.72
C       5.60       5.69       4.49
C      -0.01      11.73       8.94
C      -7.36       6.57       8.56
C      -6.96       4.50       9.92
C      -5.44       4.77       9.95
C       5.00       1.64       9.48
C      -2.50       6.34       9.52
C      -7.74       5.84       9.87
C      -5.83       6.76       8.46
C      -5.15       6.28       9.77
C      -5.78       7.05      10.96
C       4.32       0.41       9.32
C      -7.29       6.71      11.07
C      -3.70       6.44       9.69
C      10.87       5.59       9.91
C       9.67       5.38       9.91
C       0.11      -1.92      15.62
C       5.97       6.44       5.63
C       1.90      -0.58      16.77
C       7.87       7.67       1.05
C       6.26       5.65       3.24
C       1.61      -1.54      15.58
C       1.27       1.96      11.97
C      -0.26      -2.42      17.03
C       7.17       6.31       0.85
C       1.91      -3.59      17.03
C       2.43      -2.83      15.78
C       6.77       5.78       2.14
C       1.90      -0.79      14.37
C       3.04       0.79       8.88
C       2.04       0.12      13.57
C      19.31      -0.44       0.93
C      12.59      -7.21      17.00
C       2.46       9.08       8.69
C      12.20      -7.99      15.74
C       3.44       8.30      13.76
C      18.54       0.88       1.20
C       4.97       8.58      16.81
C       3.90       9.45      16.10
C      10.30      -8.83      17.05
C      17.04       0.51       1.36
C       7.36       4.58      10.68
C       3.49       8.83      14.86
C      -0.94       1.53       2.37
C      -0.41       6.66       8.14
C      -0.37       2.09       3.29
C       0.67       4.14       4.34
C       0.26       2.79       4.33
C       3.08       6.36      12.16
C       4.20       8.10      11.37
Br       5.08       1.77      13.29
Br       4.62       7.81       0.86
Br       9.60       7.43       2.01
Br      17.74       3.46       0.10
Br       7.39      17.67       0.18
Br      10.46      15.78       0.35
Br       0.58       5.39       2.95
Br      -0.53       1.47      11.65
N       1.16       3.35       6.32
N       3.96       5.64       6.03
N       4.18       2.67       9.18
N       4.97       6.41       6.52
N       2.98       2.13       8.81
N       6.11       4.78      10.24
N       1.20       4.47       5.53
N       1.77       3.06      11.42
N       2.99       8.11       7.92
N       0.74       5.98       7.97
N       3.50       6.06      10.92
N       4.19       7.14      10.43
N       0.78       4.98       8.90
N       3.09       3.11      11.82
N       2.31       8.10       6.72
N       6.15       5.54       9.11
