178

Zn      16.43       1.12       0.69
Zn       1.42       1.18       0.80
Zn       8.88       5.52      13.14
Zn       8.83      14.21       0.70
Zn      19.50       9.84       6.92
Zn      16.31       9.85       6.99
Zn      17.92      12.64       6.92
Zn      17.98      10.84       9.55
H      17.36       2.14       4.53
H      18.03       2.73       6.06
H      19.11       2.38       4.70
H      17.28       5.92       7.24
H      17.93       4.27       7.17
H      19.03       5.66       7.11
H      18.41       8.84       3.19
H      17.84       8.23       1.64
H      16.68       8.63       2.92
H      18.66       5.76       0.47
H      17.12       6.63       0.61
H      17.13       4.86       0.52
H      25.00      10.00      12.88
H      25.29      10.34      11.17
H      25.88       8.83      11.87
H      21.96      11.42      10.35
H      23.71      11.39      10.59
H      23.01      10.79       9.07
H      19.92       6.71       9.52
H      20.00       5.69      10.97
H      19.19       7.27      11.04
H      23.00       4.79      12.08
H      21.24       4.98      12.20
H      22.28       5.53      13.52
H      22.37      13.93       0.34
H      21.68      12.30       0.48
H      23.44      12.53       0.55
H      19.33      12.19       2.84
H      20.37      11.51       1.58
H      20.30      10.74       3.17
H      22.12      12.92       7.18
H      23.47      14.05       7.05
H      21.80      14.65       6.94
H      25.42      14.50       5.21
H      24.20      15.65       5.78
H      24.88      15.82       4.16
H      13.53       5.12      13.09
H      14.11       4.73      11.46
H      12.38       4.93      11.76
H      16.47       7.12      10.18
H      15.76       5.63      10.82
H      15.26       6.24       9.24
H      13.41      11.26       9.84
H      12.77      11.67      11.44
H      14.51      11.48      11.21
H      10.38       9.39      12.55
H      11.31      10.87      12.36
H      11.51       9.88      13.82
H      10.62      15.38       4.79
H      10.59      14.11       6.02
H       9.92      13.80       4.41
H      13.58      13.63       7.33
H      11.87      13.25       7.10
H      13.08      11.96       7.02
H      15.98      11.44       2.85
H      16.10      12.84       1.77
H      16.72      12.95       3.42
H      13.06      13.17       0.44
H      14.77      13.58       0.66
H      13.54      14.85       0.74
H      20.50      18.30      12.10
H      21.29      16.72      12.19
H      20.28      17.29      13.53
H      20.48      14.57       9.54
H      21.35      15.35      10.86
H      20.51      13.81      11.14
H      15.31      13.96      10.58
H      14.57      15.55      10.33
H      15.59      14.84       9.07
H      15.19      17.35      13.03
H      14.53      17.10      11.41
H      15.49      18.54      11.76
C      17.93       3.17       2.18
C      17.88       4.39       3.05
C      17.98       4.20       4.44
C      18.12       2.79       4.97
C      17.95       5.34       5.27
C      18.05       5.28       6.77
C      17.85       6.60       4.65
C      17.86       7.82       5.53
C      17.76       6.79       3.26
C      17.67       8.19       2.71
C      17.76       5.64       2.44
C      17.66       5.73       0.93
C      24.54       6.96      12.94
C      23.50       7.57      12.05
C      23.74       8.85      11.54
C      25.04       9.55      11.88
C      22.74       9.45      10.74
C      22.87      10.83      10.16
C      21.58       8.71      10.49
C      20.52       9.33       9.63
C      21.35       7.41      10.98
C      20.05       6.73      10.62
C      22.33       6.83      11.80
C      22.20       5.46      12.43
C      24.45      14.56       2.08
C      23.40      13.95       2.96
C      22.41      13.15       2.35
C      22.47      12.96       0.85
C      21.43      12.57       3.17
C      20.30      11.71       2.66
C      21.49      12.82       4.56
C      20.44      12.22       5.43
C      22.48      13.61       5.16
C      22.47      13.82       6.66
C      23.45      14.21       4.34
C      24.54      15.09       4.90
C      11.41       7.04      13.13
C      12.49       7.65      12.28
C      13.46       6.80      11.72
C      13.38       5.32      12.02
C      14.45       7.36      10.90
C      15.54       6.54      10.26
C      14.41       8.75      10.68
C      15.45       9.35       9.77
C      13.45       9.61      11.24
C      13.53      11.08      10.92
C      12.46       9.04      12.06
C      11.36       9.84      12.73
C      11.33      14.61       2.21
C      12.37      13.99       3.09
C      12.08      13.83       4.45
C      10.74      14.30       4.95
C      13.06      13.24       5.27
C      12.88      13.01       6.76
C      14.28      12.86       4.68
C      15.33      12.25       5.56
C      14.57      13.02       3.32
C      15.91      12.54       2.81
C      13.59      13.60       2.49
C      13.76      13.81       1.01
C      17.86      18.43      12.97
C      17.89      17.22      12.09
C      19.14      16.64      11.82
C      20.37      17.26      12.43
C      19.18      15.50      10.99
C      20.45      14.78      10.62
C      17.96      15.02      10.49
C      17.99      13.79       9.63
C      16.71      15.60      10.75
C      15.48      14.97      10.15
C      16.67      16.74      11.58
C      15.40      17.46      11.96
O      18.07       0.23       0.09
O      19.08       2.81       1.76
O      16.82       2.59       1.93
O      16.73       8.26       5.92
O      19.01       8.31       5.80
O      25.45       6.26      12.37
O      24.42       7.18      14.19
O      19.61       9.99      10.24
O      20.62       9.16       8.38
O      25.51      13.87       1.90
O      24.20      15.72       1.60
O      19.44      12.96       5.71
O      20.64      11.02       5.83
O      10.39       6.59      12.50
O      11.61       7.02      14.38
O      16.46       9.88      10.33
O      15.22       9.28       8.52
O      10.47      13.81       1.69
O      11.39      15.87       2.05
O      16.25      13.03       5.97
O      15.22      11.01       5.83
O      17.65      18.23      14.21
O      18.06      19.56      12.41
O      18.07      13.95       8.37
O      17.92      12.67      10.25
O      17.92      10.79       7.59
