201

Zn       3.79       6.88       9.43
Zn       1.20       3.06       9.46
Zn       1.20       5.87      11.44
Zn       3.70       4.22       7.31
H       5.96       7.57      11.88
H       2.64      -0.06       9.79
H      -8.04       7.44       9.65
H      11.73       5.39       5.89
H      11.38       7.12       5.84
H      13.94       6.04       5.48
H      11.67       4.12       8.09
H      -6.16       7.69       6.00
H       8.79      -2.06       9.37
H       9.55      -4.18       9.02
H       0.50      14.31       7.72
H      -0.94       3.89       7.15
H       4.87      -3.45      10.24
H      -2.15      13.25      10.32
H       6.28      -3.16      11.81
H       7.43      -5.08      11.88
H       7.04       4.42       6.44
H       2.64       3.37      15.89
H       8.70       9.64       3.84
H       7.17       9.01       5.67
H       6.87       6.73       1.26
H       5.34       6.07       3.08
H       0.00       9.19      11.94
H       2.13       1.26      11.80
H     -11.56       8.45      15.82
H       6.85       8.07      13.81
H      -0.19      -0.28       4.57
H       6.35       5.10      17.74
H      -8.35      16.81       2.76
H       6.90       6.46      10.25
H       5.90       2.70       9.05
H       3.11       5.03      13.92
H       5.52       8.61       7.26
H       3.90       2.27       4.73
H      -4.36       4.33       8.99
H      -5.70       3.49       9.50
H      -7.70       9.52       8.38
H      11.58       8.74       7.04
H      -6.20       7.51      10.72
H      -5.57       6.06      10.13
H      -5.82       9.59       6.59
H      -4.39       8.53       6.79
H      -3.34      10.20       8.32
H      -3.76      10.95       6.76
H       0.13       0.97       6.42
H      -4.77      11.25       8.19
H      13.48       3.09       7.10
H      -5.00       3.94       6.61
H       9.69      -5.04      12.07
H       9.58      -3.38      11.84
H      -0.19       5.12      14.56
H       0.58       4.02      15.59
H       8.00      -2.07      12.90
H       7.68      -1.06      11.65
H       8.56      -1.89       7.04
H       2.28       9.32       8.25
H       7.16      -1.25       7.62
H       3.12      -3.07       9.06
H      -4.40      14.23       8.11
H      -4.31      15.64       6.00
H       1.98      -2.98       6.81
H       3.18      -1.68       6.97
H      -1.36      14.27       6.93
H      -2.71      13.25       6.44
H      -1.25      11.20       6.58
H      -0.66      12.38       5.38
H       3.75       5.60       4.69
H       0.15      12.22       6.97
H       9.13      12.15       0.16
H       9.18      10.59       0.98
H       0.74      -1.28      14.00
H       0.84       0.06      13.03
H       2.23      -2.36      15.15
H       2.25      -2.29      16.86
H       4.47       0.27       4.75
H       5.04      -0.86       3.68
H      -3.17      17.77       1.61
H      -1.43       7.11      10.02
H      -4.20      16.70       0.71
H       5.16       3.60      16.32
H       4.78       3.92      14.72
H      12.12       5.03       9.54
C       5.13       6.93      12.20
C       1.80       9.07       9.19
C       4.04       6.29       5.49
C       3.27       0.80       9.57
C      -1.12       6.24       9.45
C       5.07       7.25       5.51
C      -1.72       5.68       8.30
C       0.97       9.86      10.02
C       2.03       1.07       5.20
C      12.22       5.00       8.45
C      -7.70       7.51       8.60
C       4.68       0.88       9.56
C      -6.10       7.43       8.68
C      -2.99       6.03       7.78
C      11.56       6.27       7.85
C       0.93       3.71      13.62
C      -6.11       4.89       8.06
C      -5.62       6.35       7.62
C      13.48       6.65       6.27
C      11.97       6.35       6.36
C      -4.16       6.29       7.56
C      10.12       6.14       8.01
C       1.54       2.42      13.63
C       8.95       5.87       8.17
C       7.22      -3.01      11.25
C       8.01      -2.65       8.87
C       8.49      -4.11       8.76
C       6.77       4.87       7.39
C       0.61      11.21       9.86
C       6.78      -2.56       9.82
C       7.94      -4.40      11.17
C      -0.16      13.76       9.73
C      -1.70      13.75       9.45
C       7.58       5.57       8.30
C       5.63      -3.54       9.44
C       0.31      12.38       9.75
C       6.20      -1.23       9.84
C       5.56      -0.20       9.75
C       6.08       7.54       4.50
C       1.66       2.13      12.26
C       6.07       6.86       3.26
C       6.94       7.21       2.24
C       7.87       8.26       2.42
C       7.96       8.86       3.69
C       4.94       7.82       6.79
C       7.09       8.50       4.71
C       2.75       1.61      17.11
C       2.43       2.30      15.94
C       2.52       0.20      17.17
C       1.95       1.63      14.79
C       1.83       0.22      14.80
C       6.69       5.92       9.34
C       2.15      -0.49      15.96
C       5.82       6.34      14.58
C       5.76       5.44      15.68
C      -0.90       4.59       7.98
C       6.47       5.73      16.85
C       7.34       6.82      16.91
C       7.55       7.61      15.77
C       6.77       7.38      14.65
C      -5.00      17.40       2.42
C       3.05      -0.51       3.54
C      -6.30      16.89       2.14
C       4.95       2.21       9.19
C       1.94      -0.03       4.26
C       0.67      -0.62       4.00
C       0.64       8.99      11.08
C      -7.37      17.22       3.00
C       3.70       5.61      13.22
C       4.95       6.24      13.41
C      -5.02       9.29       7.29
C      -4.17      10.49       7.66
C       3.62      -3.44       8.15
C       3.06      -2.77       6.91
C      -1.77      13.26       7.01
C      -0.82      12.21       6.46
C       3.00       2.10       5.31
C       1.06       1.47       6.16
N       4.09       6.74      11.38
N       8.33       8.34       0.21
N      -5.88      16.16       0.00
N       2.77       1.99       9.22
N      -6.71      16.23       0.98
N       0.72       4.12      12.35
N       5.51       4.83       7.85
N       1.18       3.12      11.50
N       5.45       5.48       9.05
N       3.79       2.87       8.98
N       3.19       5.91      12.00
N       0.09       4.51       8.89
N       3.95       7.22       7.47
N      -5.35       4.41       9.23
N      11.54       8.74       8.06
N      -5.63       7.07      10.00
N      13.82       4.03       6.87
N       9.36      -4.30      11.46
N       0.61       4.51      14.70
N       8.05      -1.98      11.89
N       7.69      -2.12       7.53
N       9.24      11.14       0.11
N       1.24       7.81      10.91
N       1.35      -0.52      13.69
N       1.95      -1.86      15.99
N       4.37      -0.10       3.81
N      -3.92      17.08       1.63
N       4.93       4.32      15.64
N       2.60       2.99       6.25
N       1.41       2.60       6.78
N       1.95       7.84       9.74
N       3.38       6.24       6.67
N      -0.05       5.52       9.80
N       8.55       8.88       1.36
O      -5.57       8.76       8.50
O       5.02      -3.14       8.22
O      -2.15      12.96       8.38
