74

Zn       4.24       6.44       6.34
Zn      13.22       5.53       6.55
H       2.04       1.15       5.81
H       4.34       7.41       2.13
H      12.04       3.40       0.14
H       5.77       8.39      12.67
H      13.47       4.45      10.70
H       6.51       5.44       4.84
H       6.12       7.57       8.37
H       8.83       4.48       4.12
H       8.58       7.40       8.88
H      11.26       4.33       4.62
H       9.07       8.51       4.81
H       5.94       2.74       6.46
H      15.18      10.80       6.68
H       7.83       2.48       6.57
H      10.23       2.08       6.87
H      11.47       8.14       5.12
H       4.75       9.32       5.41
H       1.78       2.48       3.75
C      14.68       6.10       9.00
C       7.35       0.42       6.07
C      11.91      10.13       5.87
C       5.91       0.63       5.92
C       9.08      10.56       5.53
C       9.70       9.31       5.21
C      11.04       9.11       5.38
C       5.33       1.88       6.18
C       3.12       1.00       5.80
C      13.30       9.91       6.13
C       2.92       5.80       2.34
C      13.87       8.52       6.19
C      14.89       6.05      10.49
C      14.33       4.95      12.60
C      14.17       5.08      11.25
C       4.11       6.87      11.17
C       4.31       6.79      12.58
C      13.51       5.00       0.29
C       2.06       4.92       1.70
C       3.66       6.75       1.60
C       3.49       6.85       0.23
C       9.24       4.94       5.02
C       3.02       5.85       3.84
C      10.58       4.84       5.29
C      10.37       6.04       7.26
C       8.98       6.23       7.09
C       8.40       5.65       5.92
C       7.02       5.84       5.72
C       6.82       7.06       7.71
C       8.16       6.95       7.99
C       3.39       3.43       6.38
C       7.66      10.77       5.48
C       3.96       2.08       6.13
C      14.13      10.97       6.47
C       9.57       1.25       6.60
C       8.22       1.47       6.43
C       6.68       9.70       5.13
C      13.02       3.86       2.50
N       6.27       6.50       6.59
N      11.14       5.40       6.42
O       3.89       6.74       8.31
O      13.67       5.48       8.54
O      15.11       8.33       5.88
O      13.10       7.60       6.61
O       4.17       6.04       4.34
O      13.58       5.74       4.48
O       4.21       4.36       6.65
O       2.12       3.57       6.29
O       6.93       8.64       4.57
O       5.43      10.05       5.51
O      11.81       3.68       2.57
O       2.27       3.08       3.15
F       4.83       7.83      10.53
F      10.95       6.56       8.35
