56

Zn       3.44       5.49       8.97
Zn       6.16       5.49       8.97
H       2.65       5.44       2.19
H       2.66       1.21       8.89
H       6.95       1.21       9.05
H       2.66       9.76       8.89
H       8.32       4.00       7.53
H       1.28       6.97      10.41
H       8.32       6.97      10.41
H       1.28       4.00       7.53
H       6.96       5.37      15.75
H       2.65       5.37      15.75
H       6.96       5.44       2.19
H       2.66       5.47       4.69
H       6.95       5.43      13.24
H       2.66       5.43      13.24
H       6.95       5.47       4.69
H       6.95       9.76       9.05
C       4.80       8.12       8.98
C       4.80       5.47       6.34
C       4.80       1.36       8.96
C       4.80       9.62       8.98
C       3.59       5.44       2.74
C       6.02       5.39      15.19
C       3.59       5.39      15.19
C       6.02       5.44       2.74
C       3.59       5.46       4.13
C       6.01       5.42      13.81
C       3.59       5.42      13.81
C       4.80       2.86       8.96
C       6.02       5.46       4.13
C       4.80       5.46       4.84
C       4.80       5.45      13.10
C       8.91       4.66       8.17
C       0.69       6.32       9.78
C       8.91       6.31       9.78
C       0.69       4.66       8.16
C       4.80       5.44       2.02
C       4.80       5.37      15.91
C       4.80       5.43       0.61
C       4.80       5.35      17.33
C       6.01      10.32       9.02
C       3.59       0.65       8.92
C       6.01       0.65       9.01
C       3.59      10.32       8.93
C       4.80       5.48      11.60
N       1.37       5.49       8.97
N       8.23       5.49       8.97
O       3.67       7.53       8.98
O       5.94       3.44       8.96
O       3.67       3.44       8.95
O       5.94       7.53       8.99
O       3.67       5.49      11.02
O       5.94       5.47       6.92
O       3.67       5.47       6.92
O       5.94       5.49      11.02
