448

Ni      10.93      18.26      13.24
Ni       5.08       4.37       7.57
Ni      24.05      11.08      19.19
Ni      19.43      14.35       1.62
Ni      13.57      16.39      13.24
Ni      27.92      26.37      19.19
Ni       2.43       6.24       7.57
Ni       7.06      23.10       1.62
Ni      10.93      15.46      11.62
Ni      24.05      13.89      20.81
Ni      -3.42      15.29       0.00
Ni      19.43      27.47       9.19
H       7.10      23.82       4.49
H       3.10      26.65      16.32
H      15.57      14.23      12.86
H      25.22       7.40       7.96
H      20.09      24.84      10.39
H      24.09      16.02      18.75
H       8.23      15.21      10.42
H      -1.43      16.04       2.06
H      16.73      13.44       2.43
H       7.07       5.78       5.90
H      11.59      20.61      14.92
H      15.59      32.27      18.38
H      20.09      14.63       4.49
H      24.09      11.80      16.32
H       8.23      19.42      12.86
H      -1.43      26.25       7.96
H      16.73      27.22      10.39
H       7.07      28.05      18.75
H      11.59      12.83      10.42
H      15.59       4.00       2.06
H       7.10      20.25       2.43
H       3.10       8.59       5.90
H      15.57      17.80      14.92
H      25.22      25.46      18.38
H       7.64      22.71       6.63
H       1.87      26.79      14.18
H      17.65      13.48      13.94
H      23.82       9.12       6.87
H      18.86      22.92      11.33
H      24.64      18.42      18.65
H       6.83      13.41       9.48
H       0.66      17.35       2.17
H      15.32      13.52       4.46
H       9.16       5.22       4.70
H      10.37      22.39      16.11
H      16.14      30.97      16.35
H      18.86      14.78       6.63
H      24.64      10.69      14.18
H       6.82      21.14      13.94
H       0.66      25.50       6.87
H      15.32      25.43      11.33
H       9.15      29.37      18.65
H      10.37      10.90       9.48
H      16.14       6.40       2.17
H       7.64      18.95       4.46
H       1.87      10.37       4.70
H      17.65      17.24      16.11
H      23.82      25.54      16.35
H       8.27      21.78       8.24
H       0.78      27.07      12.58
H      19.20      12.88      15.00
H      22.74      10.37       5.82
H      17.77      21.39      11.89
H      25.27      20.28      18.65
H       5.74      11.87       8.92
H       2.20      18.56       2.16
H      14.24      13.81       6.08
H      10.70       4.61       3.66
H       9.27      23.64      17.16
H      16.77      30.05      14.74
H      17.77      15.06       8.24
H      25.27       9.76      12.58
H       5.74      22.39      15.00
H       2.20      24.90       5.82
H      14.24      23.89      11.89
H      10.70      30.58      18.65
H       9.27       9.37       8.92
H      16.77       8.26       2.16
H       8.27      18.03       6.07
H       0.78      11.62       3.66
H      19.20      16.62      17.16
H      22.74      25.83      14.74
H       9.23      20.62      10.20
H      -0.63      27.59      10.62
H      21.02      12.07      16.44
H      21.37      11.82       4.37
H      16.37      19.44      12.43
H      26.22      22.55      18.67
H       4.37       9.89       8.39
H       4.03      20.22       2.14
H      12.87      14.34       8.05
H      12.52       3.76       2.23
H       7.87      25.08      18.58
H      17.72      28.93      12.76
H      16.37      15.57      10.20
H      26.22       8.60      10.62
H       4.37      23.84      16.44
H       4.03      24.08       4.37
H      12.87      21.91      12.43
H      12.52      32.24      18.67
H       7.87       7.42       8.39
H      17.72      10.54       2.14
H       9.23      16.91       8.05
H      -0.63      13.06       2.23
H      21.02      15.78      18.58
H      21.37      26.35      12.76
H       7.26      17.71      15.25
H      -2.72      24.76       5.57
H      27.17      12.02      16.52
H      19.27      17.61       4.30
H      14.27      16.47      17.40
H      24.25      28.39      18.67
H       2.28       6.93       3.42
H      10.18      20.31       2.14
H      10.77      11.51      13.10
H      18.68       3.72       2.15
H       5.78      30.86      18.66
H      15.76      26.01       7.71
H      14.27      12.75      15.25
H      24.25       5.69       5.57
H       2.28      29.63      16.52
H      10.18      24.04       4.29
H      10.77      18.95      17.40
H      18.68      32.33      18.67
H       5.78       4.46       3.42
H      15.76      16.37       2.14
H       7.26      13.99      13.10
H      -2.72      18.85       2.15
H      27.17      15.73      18.66
H      19.27      23.53       7.71
H       5.15      17.09      16.35
H      -2.60      22.57       4.46
H      29.07      12.79      15.16
H      19.36      19.65       5.66
H      14.39      16.61      19.85
H      22.15      29.65      18.65
H       2.37       7.09       0.97
H      12.07      18.75       2.16
H      10.86       9.31      14.19
H      20.57       4.51       3.50
H       5.90      32.92      17.32
H      13.65      25.36       6.62
H      14.39      10.56      16.35
H      22.15       5.07       4.46
H       2.37      31.67      15.16
H      12.07      24.80       5.66
H      10.86      19.11      19.85
H      20.57      30.77      18.65
H       5.90       4.60       0.97
H      13.65      17.63       2.16
H       5.15      13.35      14.19
H      -2.60      20.90       3.50
H      29.07      16.53      17.32
H      19.36      21.32       6.62
C       7.23      22.74       4.55
C       2.04      26.41      16.27
C      16.07      14.86      13.58
C      25.65       8.09       7.23
C      19.03      24.92      10.62
C      24.22      16.60      19.66
C       8.65      14.23      10.19
C      -0.92      16.35       1.15
C      17.15      13.73       3.39
C       7.58       4.84       6.08
C      10.53      20.77      14.74
C      15.72      32.76      17.42
C      19.03      14.39       4.55
C      24.22      10.72      16.27
C       8.65      20.11      13.59
C      -0.92      26.88       7.23
C      17.15      26.25      10.62
C       7.58      28.37      19.66
C      10.53      12.90      10.19
C      15.72       4.58       1.15
C       7.23      20.74       3.39
C       2.04       8.76       6.08
C      16.08      16.86      14.74
C      25.65      25.74      17.42
C       7.53      22.10       5.74
C       1.33      26.48      15.08
C      17.25      14.46      14.21
C      24.87       9.06       6.61
C      18.32      23.85      11.15
C      24.53      17.95      19.62
C       7.88      13.21       9.66
C       0.25      17.09       1.19
C      16.38      13.78       4.55
C       8.75       4.50       5.42
C       9.83      21.77      15.40
C      16.03      32.05      16.27
C      18.32      14.47       5.74
C      24.53      10.08      15.08
C       7.88      21.08      14.21
C       0.25      26.47       6.61
C      16.38      25.22      11.15
C       8.75      29.11      19.62
C       9.83      11.83       9.66
C      16.03       5.94       1.19
C       7.53      20.03       4.55
C       1.33       9.75       5.42
C      17.25      16.52      15.40
C      24.87      25.80      16.27
C       7.74      20.71       5.76
C      25.44      26.22      15.05
C      17.86      15.27      15.18
C      25.44       9.91       5.64
C      16.94      23.96      11.40
C      16.24       6.66       0.00
C       8.44      11.94       9.41
C       0.86      17.53       0.00
C      16.94      14.20       5.76
C       9.36       3.25       5.63
C       8.44      21.93      15.18
C      24.73       8.69      15.05
C       8.21      20.00       6.98
C      24.62      26.42      13.83
C      19.03      14.82      15.96
C      24.62      10.86       4.85
C      16.12      22.80      11.83
C      16.70       8.06       0.00
C       7.63      10.79       8.98
C      10.53      30.45      20.81
C      16.12      14.40       6.98
C      10.53       2.80       4.85
C       7.63      22.88      15.97
C      25.20       7.99      13.83
C       8.47      20.71       8.17
C      -0.30      26.90      12.64
C      19.58      13.54      15.77
C      23.23      10.96       5.04
C      16.70      21.53      12.01
C      25.46      20.76      19.61
C       6.23      10.90       8.80
C       2.59      18.91       1.20
C      14.73      14.19       6.97
C      11.08       3.61       3.84
C       8.20      23.67      16.98
C      16.97      30.64      13.84
C      16.70      14.89       8.17
C      25.46       8.69      12.64
C       6.23      22.97      15.77
C       2.59      25.55       5.04
C      14.73      22.92      12.01
C      11.08      30.93      19.61
C       8.20       9.51       8.80
C      16.97       8.74       1.20
C       8.47      18.62       6.97
C      -0.30      11.65       3.84
C      19.58      15.62      16.98
C      23.23      26.21      13.84
C       9.00      20.07       9.28
C      -1.08      27.20      11.53
C      20.61      13.07      16.58
C      22.44      11.77       4.23
C      15.92      20.42      12.31
C      26.00      22.04      19.61
C       5.45       9.80       8.50
C       3.62      19.84       1.21
C      13.95      14.48       8.08
C      12.11       3.14       3.03
C       7.42      24.49      17.79
C      17.50      29.99      12.74
C      15.92      15.18       9.28
C      26.00       8.05      11.53
C       5.45      23.79      16.58
C       3.62      25.09       4.23
C      13.95      21.81      12.31
C      12.11      31.86      19.61
C       7.42       8.40       8.50
C      17.50      10.02       1.21
C       9.00      17.98       8.08
C      -1.08      12.47       3.03
C      20.61      15.16      17.79
C      22.44      26.50      12.74
C       9.30      18.70       9.24
C      23.03      27.01      11.57
C      21.13      13.87      17.61
C      23.03      12.52       3.21
C      14.53      20.55      12.45
C      17.79      10.67       0.00
C       6.03       8.53       8.36
C      12.63      32.35      20.81
C      14.53      15.00       9.24
C       4.13      25.88       3.20
C       6.03      24.54      17.61
C      26.29       6.68      11.57
C       9.92      18.01      10.43
C      22.17      27.37      10.38
C      22.21      13.34      18.51
C      22.17      13.37       2.30
C      13.68      19.34      12.73
C      18.42      12.04       0.00
C       5.18       7.32       8.08
C      13.71      33.40      20.81
C      13.68      15.36      10.43
C      13.71       1.33       2.30
C       5.18      25.39      18.52
C      26.91       6.00      10.38
C       8.72      16.25      13.49
C      -4.58      25.66       7.33
C      25.94      13.32      18.56
C      20.91      16.88       2.26
C      12.41      17.55      15.75
C      17.22      15.57       0.00
C       3.91       5.53       5.07
C      17.44      33.44      20.81
C      12.41      13.64      13.49
C       8.94      25.34       2.26
C       3.91      28.90      18.56
C      25.72       4.23       7.33
C       7.40      15.89      14.11
C      21.01      24.29       6.70
C      27.05      13.82      17.69
C      21.01      18.10       3.13
C      12.51      17.69      17.24
C      15.90      16.29       0.00
C       4.01       5.68       3.58
C      18.56      32.44      20.81
C      12.51      12.28      14.11
C      18.56       1.81       3.13
C       4.01      30.11      17.69
C      24.40       3.87       6.70
C       6.78      16.75      15.02
C      -3.46      24.00       5.80
C      27.59      13.01      16.68
C      20.07      18.34       4.14
C      13.54      17.06      17.95
C      23.78      28.66      19.61
C       3.07       6.43       2.87
C      10.60      19.95       1.20
C      11.57      11.28      13.81
C      19.10       3.08       2.93
C       5.04      31.05      17.88
C      15.28      26.69       7.00
C      13.54      11.98      15.02
C      23.78       4.74       5.80
C       3.07      30.35      16.68
C      10.60      25.03       4.14
C      11.57      18.45      17.95
C      19.10      31.97      19.61
C       5.04       5.04       2.87
C      15.28      16.65       1.21
C       6.78      14.67      13.81
C      -3.46      19.03       2.93
C      27.59      15.10      17.88
C      20.07      23.30       7.00
C       5.59      16.39      15.64
C      -3.40      22.75       5.18
C      28.67      13.46      15.91
C      20.13      19.50       4.90
C      13.59      17.14      19.34
C      22.59      29.38      19.61
C       3.13       6.51       1.48
C      11.67      19.07       1.20
C      11.63      10.04      14.44
C      20.17       3.52       3.70
C       5.09      32.21      17.12
C      14.09      26.33       6.38
C      13.59      10.74      15.64
C      22.59       4.38       5.18
C       3.13      31.51      15.91
C      11.67      25.47       4.90
C      11.63      18.53      19.33
C      20.17      31.09      19.61
C       5.09       5.12       1.48
C      14.09      17.36       1.20
C       5.59      14.31      14.44
C      -3.40      20.19       3.70
C      28.67      15.54      17.12
C      20.13      22.06       6.38
C       4.97      15.15      15.38
C      21.13      21.76       5.43
C      29.25      14.72      16.13
C      21.13      20.47       4.69
C      12.63      17.86      20.07
C      13.47      17.76       0.00
C       4.13       5.84       0.74
C      12.26      18.62       0.00
C      12.63       9.74      15.38
C      20.75       2.71       4.69
C       4.13      32.49      16.13
C      21.97       3.14       5.43
N       7.11      22.08       3.38
N      26.95      26.08      17.43
N      15.48      16.03      13.87
N      26.95       7.92       6.95
N      18.45      26.09      10.33
N      24.10      15.92      20.81
N       9.95      14.07      10.48
N      -1.52      16.01       0.00
N      18.45      14.06       3.38
N       6.98       4.01       6.95
N       9.95      19.93      13.87
N      24.10      10.06      17.43
O      11.84      16.75      12.62
O       3.35       4.73       8.19
O      23.95      12.02      20.81
O       3.35      26.59      20.81
O      10.15      18.75      11.44
O      -2.70      27.83       9.37
O      22.61      12.16      18.28
O      20.93      13.36       2.54
O      14.29      18.23      12.84
O      27.14      24.57      19.67
O       3.93       7.53       7.98
O       5.62      21.76       1.14
O      12.43      15.16      10.30
O      14.12       2.12       1.40
O       5.79      26.03      19.42
O      18.64      28.79      10.51
O      14.29      15.82      11.44
O      27.14       6.73       9.37
O       3.93      25.38      18.28
O       5.62      24.18       2.54
O      12.43      19.55      12.84
O      14.12      33.78      19.67
O       5.79       6.22       7.98
O      18.65      12.55       1.14
O      10.15      16.77      10.30
O      -2.70      14.02       1.40
O      22.61      14.14      19.42
O      20.92      27.17      10.51
O       9.22      17.37      13.82
O      -3.69      26.50       6.99
O      25.51      12.15      18.31
O      19.94      16.09       2.50
O      13.30      16.84      15.18
O      26.21      27.32      19.68
O       2.95       6.14       5.63
O       8.52      21.80       1.14
O      11.45      13.82      12.68
O      17.02       2.10       1.36
O       4.80      28.76      19.45
O      17.72      27.42       8.13
O      13.30      14.48      13.82
O      26.21       5.35       6.99
O       2.95      28.10      18.31
O       8.52      24.17       2.50
O      11.45      18.16      15.18
O      17.02      33.82      19.68
O       4.80       4.83       5.63
O      17.72      15.30       1.14
O       9.22      15.40      12.68
O      -3.69      16.74       1.36
O      25.51      14.12      19.45
O      19.94      25.84       8.13
