244

Zn      10.11       8.12       1.37
Zn      10.29       8.34      20.93
Zn       1.34       0.88      12.73
Zn       1.32       0.88       9.50
Zn       7.77       6.23      20.91
Zn       7.54       6.12       1.38
Zn      16.52      13.51       9.49
Zn      16.48      13.64      12.75
H       8.63      10.95       1.67
H       7.29       1.42      22.47
H       2.20       8.55       9.33
H      15.98       8.71      11.27
H      10.49       1.21      20.78
H       7.60       1.01       1.35
H       3.95       8.51       9.17
H       1.73       8.57      12.87
H      13.73      13.08       0.59
H      12.48      13.32       1.81
H       5.00       5.87      11.58
H       8.66      11.10      20.52
H       3.99       6.05      13.01
H       7.44      12.54      19.18
H       7.59      12.22       3.34
H      13.23       5.21       8.06
H      13.78       4.95      14.74
H      12.08       6.56       6.39
H      12.68       6.31      16.45
H       6.29      13.90      17.51
H       6.48      13.60       5.03
H       8.86       3.69       6.28
H      14.79       3.72      13.02
H       8.89       4.52      15.45
H       2.85      11.32      17.78
H       2.71      11.74       4.07
H       4.00       9.96      19.46
H       3.83      10.35       2.37
H      10.01       2.35       7.97
H      10.00       3.14      13.74
H      14.69       4.81      20.56
H      14.63       5.60       1.95
H       8.51      12.19       9.08
H      14.61       3.63       9.10
H       8.61      12.99      13.31
H       5.36       8.29      20.42
H       5.18       8.33       1.83
H      11.32       0.81       9.11
H      11.36       1.08      13.25
H       2.19       4.61      20.54
H       2.11       5.39       1.94
H      10.95      11.98       9.07
H      11.03      12.77      13.30
H       4.38       5.29       1.93
H      11.56      13.69      20.45
H       4.53       5.28      20.41
H      13.31      12.79      13.29
H      13.30      12.54       8.97
H      11.53      11.38      20.39
H      11.50      11.07       1.92
H       2.53       3.92       8.95
H       2.67       3.87      13.27
H      12.32       5.86       1.96
H      12.66       6.19      20.42
H       6.32      13.38      13.31
H       9.79      13.86      22.32
H       6.46      13.49       8.98
H       9.33       3.45      20.49
H       8.99       3.34       2.03
H       3.14      10.76       9.05
H       2.97      10.85      13.37
H       7.95       4.78       4.43
H       8.32       4.87      17.86
H      16.96      12.25      15.79
H      17.06      12.15       6.45
H      11.52       7.78      17.90
H       2.24       6.25       9.09
H      11.34       7.47       4.39
H       2.55       0.31       6.48
H       2.61       0.24      15.73
H      13.27      13.62      20.91
H      10.10      13.45       1.21
H       3.99       6.17       9.29
H       1.52       6.25      12.80
H      11.95       2.81      22.02
H      12.36       2.56       0.89
H      13.57       2.16      22.38
H      15.70       6.39      11.22
H      15.21      14.76       0.81
H      11.99       0.28      21.99
H       8.51       1.53       3.04
H      11.59      14.55       3.18
H       9.66       0.95       4.25
H      11.33       0.36       2.68
H      10.81       1.98       2.24
H       7.34       8.22      12.62
H       6.94       6.62      11.98
H       7.82       7.77      10.98
H       8.73       1.23      20.66
H       5.58       7.79      10.14
H       5.79       9.32      11.00
H       2.81       9.03      14.44
H       3.16       7.29      14.49
H       4.09       8.42      15.49
H       5.57       7.90      13.74
H       4.99       9.51      13.35
C       7.91      10.14       1.65
C      10.43       6.90       4.21
C       2.96      11.04      12.30
C      11.78       0.57       0.16
C      12.53       2.22      22.75
C      10.48       0.93       2.25
C       9.30       0.79       3.22
C       5.70       8.23      11.14
C       7.01       7.68      11.72
C       4.68       8.45      13.41
C       3.62       8.29      14.50
C       4.45      14.43       6.67
C       4.46      14.41      15.55
C      13.16       5.85      22.60
C       6.97      13.13      11.15
C       9.39       2.87      22.68
C       3.18      10.16      11.23
C       9.85       5.87       4.97
C      10.13       6.10      17.32
C       3.91      13.36      16.31
C       7.99      10.25      20.57
C       3.93      13.37       5.91
C      12.29      14.04      21.21
C      10.40      13.88       0.24
C       3.07       6.59       9.73
C       1.66       6.67      11.79
C       9.57       0.83      21.24
C       7.82       0.65       0.34
C       3.12       8.13       9.77
C       1.83       8.20      11.85
C      12.81      13.64       0.80
C      14.08       2.90      13.01
C       4.13       6.41      11.98
C      11.91      13.47      22.58
C       2.90       6.01      11.14
C       9.43       1.36      22.69
C       3.19       8.65      11.23
C       6.30       8.82      20.52
C       6.15       8.80       1.71
C      12.26       1.34       9.18
C      12.32       1.56      13.11
C      10.36       0.42       0.79
C      13.94       2.78       9.18
C       4.41       7.95      11.96
C       6.43      12.27      18.89
C       6.51      12.12       3.48
C      12.27       4.87       7.68
C      12.70       4.86      14.88
C      11.62       5.63       6.73
C      12.08       5.63      15.85
C       5.77      13.04      17.94
C       5.88      12.90       4.44
C      10.41       5.21       6.15
C       8.71       5.53       4.23
C      10.71       5.48      16.13
C       4.49      12.69      17.47
C       4.51      12.73       4.73
C       9.82       4.04       6.67
C       9.97       4.61      15.31
C       3.86      11.60      18.08
C       3.79      11.84       3.92
C       4.51      10.83      19.04
C       4.42      11.06       2.96
C      10.48       3.27       7.63
C       9.01       5.68      18.07
C      10.60       3.83      14.33
C       5.84      11.11      19.43
C       5.81      11.13       2.76
C      11.75       3.63       8.11
C      11.99       3.89      14.14
C      15.25       5.00      21.48
C      15.12       5.31       1.02
C       9.06      12.32      10.01
C       9.11      12.75      12.37
C       1.69       4.89      21.47
C       2.75      13.02      15.58
C       1.56       5.20       1.01
C      10.45      12.21      10.01
C      10.49      12.63      12.37
C       2.46       5.17      22.62
C      11.21      12.42      11.17
C       4.59       5.26       0.87
C       4.77       5.37      21.46
C      13.53      12.76      12.23
C      13.53      12.63      10.03
C      14.56       5.41      22.64
C       2.81      12.96       6.65
C       8.36      12.67      11.18
C      11.51      11.15      21.45
C      11.40      10.87       0.85
C       2.51       3.69      10.01
C       2.58       3.66      12.21
C       6.55      10.12       2.00
C       6.63      10.15      20.20
C      12.72       2.88      13.38
C      12.57       2.68       8.86
C       3.91       5.29      22.58
C      10.65       7.15      18.09
C      12.66      12.55      11.14
C      11.73      11.98      22.55
C       2.71       4.53      11.12
C      12.17       5.99       0.90
C      12.43       6.28      21.48
C       6.17      13.52      12.24
C       6.23      13.57      10.03
C       9.23       3.69      21.55
C       8.97       3.51       0.96
C       3.05      11.00      10.10
N       8.29       8.92       1.21
N       6.04       5.61      21.85
N      14.79      12.95      11.80
N      14.79      12.87      10.43
N      11.25       9.88      21.85
N      11.12       9.61       0.44
N       2.27       2.42      10.42
N       2.32       2.40      11.79
N      11.07       6.63       0.45
N      11.30       6.90      21.88
N       5.07      14.17      11.80
N       8.42       9.07      21.04
N       5.11      14.20      10.44
N       8.93       4.96      21.92
N       8.69       4.75       0.49
N       2.75      12.26      10.49
N       2.70      12.28      11.85
N       8.62       6.30       3.13
N       8.89       6.42      19.19
N      17.58      13.80      14.49
N       2.67      13.71       7.76
N       9.91       7.34      19.20
N      14.45       1.68      12.59
N       9.69       7.15       3.12
N       3.69      14.63       7.77
N       3.69      14.67      14.48
N      14.40       1.60       9.62
N       7.39       8.19      21.01
N       7.21       8.10       1.25
N      13.37       0.71       9.62
N      13.38       0.85      12.65
N       5.85       5.45       0.44
