176

Zn       5.23      25.17       9.60
Zn      15.99       5.29       8.24
Zn      15.83      26.60      10.92
Zn      14.50      15.96       9.56
Zn       5.31       6.58       9.48
Zn      17.19      15.93       9.68
H       6.33       6.60       5.43
H      18.35      20.47       9.92
H      17.38       9.54       7.24
H       4.31      24.02       5.36
H      13.35      15.03      13.81
H       9.00      25.22      11.05
H      14.51      19.74       8.12
H       9.39      26.64      12.03
H       9.84       7.76       9.23
H      15.93      20.13       7.13
H      11.60      25.86      11.96
H      15.14      22.34       7.21
H      11.26      24.77      10.61
H      14.06      22.00       8.56
H       9.38      25.40       8.54
H      14.70      20.12      10.63
H      25.93      28.16      12.64
H      17.49      15.40       6.52
H       9.52       7.67      10.96
H      18.25      20.14       8.19
H      11.74       7.09      11.47
H      17.65      22.36       7.69
H      17.20      16.95      13.74
H      12.11       7.67       9.84
H      18.24      22.73       9.31
H       9.43       5.68       7.73
H      16.28      20.05      11.43
H      11.75       6.03       7.91
H      16.61      22.36      11.25
H      25.73      28.21      16.16
H      17.54      15.19       3.00
H      27.00      24.09      16.37
H      13.41      16.44       2.79
H       6.25       6.69       2.93
H      17.30      16.87      16.23
H      26.97      23.97      13.87
H      13.29      16.41       5.29
H      22.32      24.89      10.47
H      11.70      25.58       8.19
H      14.24      11.76       8.70
H      22.36      25.04       8.72
H      14.39      11.81      10.45
H      20.03      25.34       8.55
H      14.70       9.48      10.61
H      14.88      22.44      10.98
H      20.00      24.67      10.19
H      14.03       9.44       8.98
H      22.68      26.94      11.95
H      16.28      12.14       7.21
H      20.43      26.30      12.13
H      15.66       9.88       7.03
H      22.36       7.53       8.72
H      18.16      11.70      10.44
H      22.01       6.10       7.74
H      16.74      11.35      11.42
H      19.76       6.56       8.19
H      17.21       9.10      10.97
H       4.24       2.88       2.86
H      13.50      14.84      16.30
H      20.16       7.64       9.54
H      18.29       9.51       9.62
H      22.41       7.23      11.26
H      17.86      11.75       7.90
H      20.21       6.73      11.92
C       7.82       5.82       9.78
C       5.10       4.91       1.28
C      16.28      11.92       9.39
C      19.87      26.84      10.11
C      16.20       9.33       9.06
C      20.56      27.15      11.44
C      16.51      10.02       7.72
C      20.38       6.66       9.09
C      15.52      15.72      17.88
C      17.30       9.72      10.07
C      15.94      24.05       9.12
C      13.31      26.66      10.04
C      16.09       7.82       8.99
C      18.36      26.72      10.17
C      26.42      25.96      12.14
C      15.29      15.87       7.02
C       5.90       5.78       4.85
C      16.38      16.52      14.31
C       5.84       5.84       3.47
C       9.61      26.13      11.08
C      16.44      16.46      15.69
C       5.23       4.80       2.74
C      15.41      15.84      16.42
C       4.72       3.68       3.43
C      14.29      15.32      15.73
C      15.42      20.35       8.08
C       4.82       3.61       4.82
C      14.22      15.42      14.34
C      11.12      25.80      10.98
C      15.08      21.85       8.19
C      16.41      18.43       9.38
C       9.86       5.15       8.60
C      15.74      20.47      10.57
C      10.00       7.14      10.12
C      17.72      20.62       9.03
C       9.33       5.78       9.91
C      16.36      19.94       9.25
C      11.79      26.78      10.00
C      16.07      22.54       9.16
C      11.40       5.23       8.58
C      15.81      22.01      10.58
C      11.51       6.94      10.40
C      17.51      22.13       8.75
C       5.41       4.68       7.03
C      15.29      16.02      12.13
C      26.06      27.24      14.27
C       5.39       4.67       5.54
C      16.57      15.52       4.89
C      26.01      27.28      15.67
C      16.61      15.47       3.49
C      26.35      26.15      16.41
C      15.48      15.80       2.75
C      15.27      16.00      13.62
C      26.73      24.95      15.77
C      14.27      16.17       3.39
C      26.72      24.89      14.39
C      14.22      16.16       4.77
C      26.40      26.02      13.61
C      15.35      15.85       5.55
C      15.56      15.77       1.29
C      26.32      26.24      17.88
C      21.94      25.49       9.63
C      14.84      11.40       9.54
C      20.40      25.49       9.58
C      14.85       9.86       9.59
C      22.06      27.44      11.19
C      16.78      11.53       7.97
C      24.09       5.70       9.61
C      16.32      13.42       9.55
C      21.88       6.54       8.74
C      17.18      11.22      10.42
C      22.59       5.65       9.78
N       4.20       4.12       0.65
N      14.76      16.61       0.58
N      27.16      25.44      18.58
N      16.46      14.92       0.73
N      25.46      27.13      18.43
N      14.74      14.80      18.51
N      16.41      16.52      18.51
N       5.90       5.81       0.65
O       7.11      25.98       9.69
O      17.90       5.31       9.05
O      15.97       7.23      10.11
O      16.09       7.21       7.85
O      17.76      26.72      11.31
O       7.21       6.95       9.73
O      17.55      17.83       9.43
O      15.29      17.85       9.47
O       5.25      24.84       7.66
O      14.16      15.98      11.50
O       5.44       5.83       7.58
O      16.43      16.06      11.58
O      24.59      25.88       9.54
O      15.21      14.04       9.62
O      24.67       6.86       9.56
O      17.48      14.00       9.60
O      26.51      24.83      11.54
O      14.15      15.95       7.62
O      26.34      27.08      11.51
O      16.41      15.80       7.65
O      15.88      24.66      10.23
O      14.05       5.32       8.93
O      25.78      28.38      13.61
O      15.92      24.63       7.97
O      17.71      15.24       5.55
O      13.89      26.65      11.19
