216

Zn      10.59       8.34       0.02
Zn       8.26      10.62       0.08
Zn       5.86       8.43       0.02
Zn       8.19       6.15       0.08
Zn       2.36       0.05       9.58
Zn      16.35       2.24       9.58
Zn      14.09      16.73       9.58
Zn       0.10      14.53       9.58
H       7.79      11.81      12.95
H      10.18      13.04       7.31
H       0.85      13.06       4.24
H       6.27       3.74       7.31
H       0.51       3.37      15.18
H       6.60      12.92      11.20
H      15.94      13.40      15.18
H       9.85       3.85      11.20
H       5.44       9.83      13.09
H       4.13       2.78      16.13
H      11.01       6.94      13.09
H       1.71       4.51      16.90
H      12.32      14.00      16.13
H      11.44      10.07       5.30
H      12.07       3.00       3.06
H       5.01       6.70       5.30
H       4.38      13.77       3.06
H      13.32       1.65       4.23
H      12.66      11.41       6.52
H       3.13      15.12       4.23
H       3.79       5.36       6.52
H       2.90       1.45      14.97
H       8.66       4.97      12.95
H       4.19      11.18      11.97
H      13.55      15.32      14.97
H      12.26       5.59      11.97
H      11.68       7.98       4.32
H      11.63       7.28       2.79
H       6.50      13.96       2.40
H       7.79      13.19       1.63
H       4.77       8.79       4.32
H       4.82       9.49       2.79
H       9.95       2.81       2.40
H      14.73      12.26      16.90
H       8.66       3.58       1.63
H       5.40       7.62      14.13
H       5.16       7.16      15.74
H      10.31      14.31      17.12
H       8.91      13.40      17.27
H      11.05       9.16      14.13
H      11.29       9.61      15.74
H       6.14       2.46      17.12
H       7.54       3.38      17.27
H       3.05      16.02      13.93
H       9.03      11.96       5.51
H       3.24      15.56      12.31
H      14.26       5.93      10.91
H      15.56       4.96      11.28
H      13.40       0.75      13.93
H      13.21       1.22      12.31
H       2.19      10.84      10.91
H       0.89      11.81      11.28
H      13.23      16.28       5.21
H      13.22      15.60       6.75
H       0.56       5.05       8.56
H      14.49       4.78       2.42
H       1.85       5.86       7.84
H       3.22       0.49       5.21
H       3.23       1.17       6.75
H      15.89      11.73       8.56
H      14.60      10.91       7.84
H       3.33      10.37       1.07
H       8.29       5.50       3.19
H      13.13       6.40       1.07
H       8.16      11.27       3.19
H      13.20      10.31      17.52
H       7.42       4.81       5.51
H       8.03       5.44      15.42
H       3.25       6.46      17.52
H       8.42      11.33      15.42
H      11.37       1.94      10.45
H       0.25      13.88      12.74
H       5.08      14.83      10.45
H      16.20       2.89      12.74
H       4.88       1.97       8.47
H      16.41      13.77       6.53
H      11.57      14.80       8.47
H       1.96      11.99       2.42
H       0.04       3.00       6.53
H      15.60       3.71       4.24
C      10.49       8.95       3.01
C      13.95       3.97      10.53
C      14.42      16.32      12.60
C       2.50      12.80      10.53
C      14.22       0.55       6.58
C       2.25       3.93       8.31
C       2.23      16.22       6.58
C      14.19      12.84       8.31
C       4.27      10.90       1.08
C       7.57       6.29       2.99
C      12.18       5.87       1.08
C       5.97      12.30       1.36
C       8.88      10.48       2.99
C      12.28      10.87      17.62
C       8.70       6.27      15.59
C       4.17       5.90      17.62
C       7.74      10.50      15.59
C      12.30       2.50      10.41
C      15.94      14.70      12.54
C       4.15      14.27      10.41
C       0.51       2.07      12.54
C       3.94       2.52       8.51
C       5.96       7.82       3.01
C       0.71      14.61       6.68
C      12.51      14.25       8.51
C      15.74       2.16       6.68
C       9.92       9.98       3.80
C       4.60      12.13       1.69
C       6.53       6.79       3.80
C      11.85       4.64       1.69
C       6.86       9.87      14.69
C      12.03      12.23      17.31
C       9.59       6.91      14.69
C      10.48       4.47       1.36
C       4.42       4.54      17.31
C       1.44       1.45      13.42
C      12.56       3.84      10.77
C      15.01      15.32      13.42
C       3.89      12.93      10.77
C      14.77       1.62       5.82
C       3.61       3.76       7.94
C       1.68      15.15       5.82
C      12.84      13.01       7.94
C       6.82      11.37      12.69
C       6.27       8.84      15.48
C       2.25       3.70      16.40
C       9.63       5.40      12.69
C      14.20      13.07      16.40
C      10.02      11.55       5.75
C      13.94       3.96       2.90
C       6.43       5.22       5.75
C       2.51      12.81       2.90
C      14.66       3.25       3.92
C      10.75      12.27       6.78
C       1.79      13.53       3.92
C      10.65      12.38      17.61
C       5.70       4.50       6.78
C       1.49       2.95      15.42
C       6.07      12.10      11.70
C      14.96      13.82      15.42
C      10.38       4.67      11.70
C       6.37      10.31      13.41
C       3.59       3.59      16.63
C      10.08       6.46      13.41
C      12.86      13.18      16.62
C      10.48      10.50       5.02
C      10.18       7.93      15.48
C      12.63       3.79       2.56
C       5.97       6.27       5.02
C       3.82      12.98       2.56
C      14.23       2.14       4.59
C      12.07      12.16       7.06
C       2.22      14.64       4.59
C       4.38       4.62       7.06
C       1.95       1.90      14.68
C       4.73      11.99      11.46
C      14.50      14.87      14.68
C       5.80       4.40      17.61
C      11.72       4.79      11.46
C       2.03       0.45      12.60
N       9.86       8.89       1.81
N      14.46       2.81      10.09
N      14.93      16.25      11.35
N       1.99      13.96      10.09
N      14.79       0.50       7.80
N       1.83       2.88       9.03
N       1.66      16.27       7.80
N      14.62      13.89       9.03
N       5.35      10.37       0.46
N       7.59       6.94       1.81
N      11.11       6.40       0.46
N       6.41      11.25       0.64
N       8.86       9.83       1.81
N      11.16      10.27      18.05
N       8.80       6.84      16.80
N       5.29       6.50      18.05
N       7.65       9.94      16.80
N      13.43       1.88      10.03
N      15.86      15.25      11.33
N       3.01      14.89      10.03
N       0.59       1.52      11.33
N       2.89       1.98       9.15
N       6.59       7.88       1.81
N       0.70      15.27       7.85
N      13.56      14.79       9.15
N      15.75       1.50       7.85
N      11.56       8.14       3.32
N       6.79      13.38       1.62
N       4.89       8.63       3.32
N       9.66       3.39       1.62
N       5.30       7.93      15.09
N       9.87      13.53      17.58
N      11.15       8.84      15.09
N      10.04       5.52       0.64
N       6.58       3.25      17.58
N       3.10      16.33      12.96
N      14.78       5.09      10.65
N      13.35       0.44      12.96
N       1.67      11.68      10.65
N      13.27      16.46       6.21
N       1.39       4.97       7.97
N       3.18       0.31       6.21
N      15.06      11.80       7.97
N       6.73       8.92      16.75
N      10.14      11.21      18.06
N       9.72       7.86      16.75
N       6.31       5.56      18.06
N       1.52       0.52      11.35
