148

Zn       7.61      12.06       8.47
Zn      -1.59      -2.85       8.40
Zn      -9.12      12.96      10.34
Zn       8.14      14.97       6.77
H       5.59      11.02      11.00
H       1.46      -3.37       7.46
H      -6.81      11.51       8.56
H      15.64      -1.63       4.22
H       0.10      -1.71       5.92
H       9.15       9.67       6.89
H       9.52      13.39       4.40
H      -5.50      12.54      10.90
H      -3.75       4.94       7.76
H      11.49       5.94       5.42
H      12.27       3.58       5.62
H       7.79       7.73       1.88
H       0.19      -2.14      16.77
H       1.01       1.45      14.52
H      10.29      -7.62      15.67
H      16.44       0.55       1.11
H      -1.87      -4.19      13.35
H      -1.53      -0.80      10.66
H       5.06      12.93       9.97
H      13.48      -0.98       7.56
H      -3.70      -5.69      13.10
H      -4.79       8.46       7.56
H      -2.76       8.37       8.64
H      -2.36       6.84       7.82
H      -3.35       6.82       9.30
H      -0.93       0.29       7.80
H      -0.78       2.54       8.48
H      -2.54       2.58       8.78
H      -1.93       2.58       7.11
H       9.09      11.96       0.53
H       2.67       4.54      15.63
H       1.13       3.84      15.07
H       2.68       3.14      14.54
H       0.73       3.48       4.59
H      -0.86       2.78       4.24
H       0.09       5.60       3.45
H      -1.47       4.90       2.99
H      -2.13       4.71       5.41
H      -1.68       6.38       5.04
H      -0.54       5.34       5.91
H      -5.63      -4.91      15.87
H       0.74       5.56       1.07
H       2.21       5.42       0.08
H       2.08       4.51       1.60
H      12.25      -2.35       5.82
H      10.10      -1.43       5.56
H      10.44      -1.14       7.30
H       9.46      -2.54       6.79
H       5.90      10.03       6.24
H       6.10       8.03       5.07
H       7.66       8.54       4.39
H       6.16       9.21       3.72
C       6.53      11.46      11.31
C      -4.25       0.39       7.71
C      -1.44      -2.16      12.47
C      11.16      -4.25       8.38
C       7.44      11.08       5.49
C       1.21      -3.97       8.33
C      -7.82      11.22       8.27
C      16.54      -1.84       4.79
C      -0.94      -1.87       5.66
C       9.87      10.29       7.42
C       8.82      12.72       4.89
C      -2.91      -0.00       8.00
C      -5.73      13.22      10.09
C       8.33      11.48       4.45
C      -4.86      13.76       9.12
C      11.28      10.17       7.44
C      -1.74      -1.15       4.75
C       9.78      -4.36       8.52
C       1.64      13.99       8.63
C       0.32      13.81       8.73
C      -0.91      13.67       8.80
C      -2.24      13.60       8.90
C      -1.87      -3.50      12.51
C      -3.47      13.62       8.99
C      -5.08       6.51       7.09
C      13.17       6.78       6.47
C      12.44       5.72       5.91
C      12.87       4.40       6.03
C      -5.46       4.12       6.74
C      -4.67       5.18       7.22
C      12.59       8.06       6.60
C      -5.08       2.79       7.02
C      -4.72       1.67       7.37
C      11.93      -3.58       7.37
C      12.05       9.11       6.91
C       0.58      -1.13      16.73
C       0.50      -0.39      15.52
C       1.06       0.90      15.46
C       1.63       1.50      16.59
C       8.24       9.60       0.92
C       7.76       8.28       0.94
C      -0.18      -0.94      14.42
C       8.53      10.27       2.13
C       8.54      10.85       3.21
C      -1.68      -1.77      11.13
C      -0.81      -1.46      13.51
C      17.26       1.22       0.87
C      -1.38       1.63       1.91
C      -0.37       2.58       1.65
C      -0.07       2.95       0.31
C      12.04      -6.46      16.18
C      10.90      -7.24      16.49
C      -1.44       0.86       3.10
C      12.52      -6.38      14.86
C      13.08      -6.46      13.77
C       5.21      13.57       9.11
C      -1.49      -0.05       3.92
C      14.55      -0.82       7.72
C      -4.37      -6.15      12.38
C       6.90      11.97      12.58
C      -3.15       7.38       8.37
C      -1.76       2.19       8.12
C       2.16       3.60      15.39
C      -0.10       3.50       3.88
C      -0.69       4.90       3.77
C      -1.29       5.35       5.10
C       1.52       4.86       0.73
C      10.32      -1.92       6.52
C       6.65       8.88       4.65
N       7.56      11.58      10.45
N      -0.04      -4.02       8.82
N      -8.90      11.89       8.71
N      16.61      -2.85       5.66
N      -1.65      -2.89       6.22
N       9.49      11.31       8.19
N       8.26      13.06       6.06
N      -0.06      -4.86       9.91
N      -2.88      -1.34       8.14
N      -2.31      -3.86      11.29
N      13.22      -3.90       7.52
N      -2.19      -2.80      10.44
N       6.44      13.76       8.59
N      15.37      -1.86       7.97
N     -10.89      12.15      11.12
N       7.39      12.04       6.43
N      -4.33       7.56       7.56
N      -1.76       0.73       8.19
N       2.19       2.75      16.55
N      -5.65      -5.06      16.87
N      11.50      -2.76       6.36
N       6.73       9.91       5.67
O       0.48       3.03       2.64
