138

Zn      -3.55      -4.24       8.78
Zn      10.14      12.56       6.70
Zn       2.65      17.24       0.21
Zn      10.30       1.49       0.15
Zn       3.54       3.92       8.47
Zn       2.05       5.30       6.69
H       5.76      15.32       2.89
H      13.49      -1.01       5.67
H       5.60       7.51       5.77
H       6.71       7.13       8.61
H       7.76       8.93       5.58
H       6.66       9.76       8.34
H      -0.85       7.61       9.18
H      -5.53      12.80       8.91
H       1.12       6.49      11.27
H       0.55       8.72      12.28
H       5.47       2.01       5.35
H       4.55       4.02       3.21
H       6.58       0.89       3.40
H       7.43       3.77       2.73
H       4.45      -5.79      10.58
H       3.47      -7.04      12.44
H      -7.06       9.46      13.57
H       1.65       0.17       9.04
H      -0.38      -1.49       9.17
H      -8.87       8.78      10.43
H       7.14       8.28      10.61
H       5.69       9.61      12.14
H      12.76      -6.51      13.50
H      -3.25      -6.02      13.34
H       6.91      12.45       4.82
H       5.13      10.78       4.33
H       2.73      11.40       4.56
H       2.12      13.71       5.28
H       9.95      -2.57       5.76
H      -2.82       9.01       9.51
H      -5.22       8.54       9.15
H      -6.41       6.91      10.61
H      -5.17       5.76      12.44
H      -2.77       6.25      12.82
H      -2.02       0.69       8.34
H      -4.06       0.91       6.95
H      14.54       1.74       4.61
H      -1.68       2.38       3.68
H       0.36       2.19       5.08
C      -1.00      -3.11       7.27
C      -5.49      11.64      10.74
C      -6.91      11.43      10.81
C      -7.47      10.65      11.81
C      -6.63      10.08      12.79
C      -5.27      10.33      12.81
C       0.82       0.13       8.33
C       0.52       1.26       7.65
C       0.08      -1.12       8.24
C      -0.11      -1.92       7.17
C      11.91      -1.00       4.20
C      -7.78      12.11       9.80
C      11.54      -1.58       3.04
C      12.72      -1.64       5.23
C      12.63      -2.92       5.65
C       6.23       7.74       6.63
C       6.04       7.03       7.76
C       7.18       8.83       6.50
C       7.30       9.78       7.45
C      -1.11       8.90      13.68
C      -4.48       9.81      13.96
C       8.33       1.96       1.83
C       8.18      10.95       7.35
C      10.74      -0.98       1.95
C       3.76       3.93       5.27
C       1.42       2.45       7.82
C       1.40       6.08       9.16
C       4.95       6.05       7.86
C      -0.41       7.47      10.17
C       0.72       6.74      10.29
C      -1.17       7.92      11.34
C      -0.51       8.48      12.39
C       5.53       2.51       4.38
C      13.70      -3.43       6.57
C       4.65       3.51       4.17
C       6.49       1.98       3.44
C       7.36       2.68       2.69
C       1.17      -5.55       9.69
C       2.53      -5.37       9.64
C       3.37      -5.92      10.63
C       2.82      -6.63      11.67
C      -4.65      11.10      11.77
C      -8.94      10.38      11.88
C      -9.51       9.36      11.10
C       7.57       9.08      11.20
C       6.76       9.82      12.06
C      -5.06      -7.10      12.83
C      -3.69      -6.83      12.75
C       5.52      14.03       5.31
C       5.86      12.72       4.92
C       4.86      11.79       4.64
C       3.51      12.14       4.76
C       3.16      13.43       5.17
C       4.16      14.37       5.44
C      -2.63       7.67      11.20
C      -3.33       8.29      10.16
C      -4.69       8.03       9.95
C      -5.35       7.12      10.77
C      -4.66       6.48      11.80
C      -3.31       6.75      12.02
C      -0.68       1.41       6.80
C      -1.94       1.05       7.31
C      -3.09       1.17       6.53
C      -3.00       1.64       5.22
C      -1.75       2.01       4.71
C      -0.61       1.90       5.49
I       0.82      -1.60       5.32
I      11.33       0.97       4.72
I       3.37      -4.26       8.07
O      -1.87      -3.09       8.20
O       5.36      -7.90      14.16
O      -4.81       8.67      14.47
O       2.54      -7.41      14.40
O       8.14       0.73       1.61
O       9.32       2.65       1.35
O       3.70      16.24       1.51
O      11.07       0.17       1.52
O       3.97       3.47       6.43
O       2.81       4.77       4.98
O       2.45       2.32       8.60
O      -6.93      13.88       6.42
O       1.12       3.51       7.20
O       2.28       5.22       9.47
O       1.05       6.39       7.95
O       5.12       5.04       8.66
O       3.91       6.25       7.16
O      -2.60      -5.02      10.27
O      -7.58      11.86       8.57
O       7.97      11.88       8.19
O       9.09      10.97       6.43
O      13.57      -3.19       7.83
O       8.58      13.85       6.04
O      -1.94       8.14      14.25
