46

Al       3.78       3.52       7.42
Al       0.62       3.52       7.42
H      -0.94       2.13       6.29
H       2.19       4.92       8.55
H       0.09      -0.52       7.23
H       1.16       7.57       7.61
H      -3.00       3.35      11.44
H      -3.83       4.32      13.69
H       1.20       2.58      11.43
H       1.97       1.34      13.63
H       4.25       3.70       3.41
H       5.07       2.73       1.15
H       0.04       4.46       3.42
H      -0.72       5.71       1.21
C       2.12       3.90       5.02
C       2.26       1.09       7.38
C      -0.87       3.15       9.83
C      -1.01       5.96       7.47
C      -0.94       7.43       7.38
C       2.19      -0.38       7.46
C      -2.10       3.13      12.01
C      -2.14       3.06      13.40
C      -3.47       3.35      14.08
C       0.29       2.72      12.00
C       0.31       2.65      13.39
C       1.63       2.30      14.06
C       3.34       3.91       2.84
C       3.39       3.99       1.45
C       4.72       3.70       0.77
C       0.96       4.33       2.85
C       0.94       4.40       1.45
C      -0.39       4.75       0.79
C      -0.90       2.98      11.30
C      -0.92       2.83      14.11
C       2.14       4.07       3.54
C       2.17       4.22       0.74
O       3.17       3.47       5.59
O       1.21       1.73       7.03
O       0.22       2.90       9.21
O      -2.13       5.41       7.18
O      -1.93       3.58       9.26
O       0.03       5.32       7.82
O       1.03       4.15       5.63
O       3.37       1.63       7.66
O      -0.95       2.98       6.74
O       2.20       4.06       8.10
