128

Zn       3.89       3.73       6.63
Zn       2.48       4.85       8.66
Zn      14.72       7.72       0.06
Zn      -2.25       9.88       0.03
Zn      -8.59      12.56       8.51
Zn       8.37      13.67       6.67
H       5.81       7.47       4.75
H      10.02      -3.39      11.79
H      -1.57       4.75       2.28
H      -0.08       5.14       1.38
H       1.31       4.18       3.20
H       5.60       7.56       9.05
H       6.85       9.73       9.07
H       6.86       9.75       4.77
H       9.94       1.81      11.67
H       9.53       2.03       9.95
H       9.86       3.43      10.98
H       4.10       2.67      12.07
H       6.91       4.37       8.62
H       8.56       4.09       9.22
H       7.71       2.83       8.31
H      11.80      12.59       1.16
H      -5.12      12.96       1.54
H      13.10      11.49       0.65
H      -7.27      14.03       4.55
H      -6.37      14.06       3.02
H      10.56      13.52       3.06
H      -4.08       7.93       4.04
H      -0.69       2.22       8.18
H      -5.12       7.79       5.48
H      12.90       7.29       3.88
H       0.27       2.92       5.08
H      -1.35       3.47       4.60
H      -0.42       2.38       3.54
H       0.46      -2.20       6.20
H       2.13      -0.34       6.18
H      -6.38       9.63       6.21
H      -5.27      -1.26      13.51
H      -3.73      -2.32      11.84
H      11.52      -4.27       9.99
C       4.89       6.11       6.97
C       5.64       7.38       6.90
C       5.16       2.62      11.86
C       1.40       5.71       6.43
C       6.04       2.05      12.79
C       7.42       2.02      12.51
C       7.92       2.53      11.30
C       7.03       3.07      10.35
C       5.64       3.09      10.64
C      -0.46       1.26       7.72
C      -1.42       0.25       7.66
C      -0.43       6.39       3.19
C      -1.09      -1.01       7.12
C       0.20      -1.22       6.60
C       1.13      -0.19       6.60
C       1.83       2.14       7.29
C       0.82       1.04       7.19
C      13.84       9.44       1.85
C      -1.41       8.33       1.99
C      10.69      -1.59      13.72
C       8.33       1.38      13.53
C      -7.58      11.98       6.17
C      -0.54       5.13       2.37
C       7.61      11.18       7.01
C      -4.43      -3.82       9.72
C      -2.03      -2.18       7.22
C      12.62      11.42       2.77
C       4.62       3.55       9.64
C      11.97      12.08       3.83
C      -6.79      11.40       5.06
C      -6.27      10.11       5.23
C      -5.65       9.43       4.19
C      13.09      10.10       2.95
C       0.29       4.43       3.53
C      -5.65      -1.96      12.76
C      -4.80      -2.53      11.83
C      -5.33      -3.35      10.81
C      11.92      -3.65      10.79
C      11.08      -3.15      11.78
C       0.26       5.78       4.23
C      11.59      -2.27      12.75
C       0.62       6.45       5.39
C       0.28       7.83       5.45
C      -0.34       8.48       4.34
C       5.92       8.03       8.12
C      -0.71       7.75       3.18
C       0.61       8.61       6.60
C       5.47       1.52      13.98
C       9.39       2.44      10.96
C       7.58       3.63       9.06
C      -2.72       0.48       8.21
C      12.76      12.14       1.46
C      -0.64       9.87       4.44
C      11.51      13.50       3.61
C      -5.11       8.04       4.41
C       6.58       9.24       8.13
C      -0.34       3.23       4.23
C       6.91       9.86       6.92
C       6.61       9.25       5.70
C       6.02       7.98       5.69
N       0.88       9.27       7.52
N       4.93       1.11      14.94
N      -3.77       0.69       8.68
N      -0.89      11.01       4.54
O       5.10       5.18       6.10
O      10.03      12.70       5.87
O       8.48      11.28       7.92
O       4.07       6.00       7.94
O       7.28      12.12       6.19
O      -3.33      -4.40      10.06
O      13.79      -3.61       8.53
O      -1.68      -3.07       8.04
O      -3.08      -2.18       6.48
O       2.22       4.87       5.96
O       1.19       5.94       7.67
O      -3.80      10.09       1.36
O       2.83       2.10       6.47
O       1.63       3.03       8.16
O       4.79       3.23       8.43
O       3.61       4.21      10.11
O      13.49       8.26       1.45
O      -2.31       7.58       1.50
O      -1.03       9.46       1.53
O       9.62      -2.22      14.10
O      -7.59      -0.43      14.10
O       8.00       0.22      13.91
O       9.34       2.05      13.95
O      -7.26      11.69       7.39
