136

Zn       6.82       5.65      14.16
Zn       6.53       8.43      14.38
Zn       6.78       8.40       1.16
Zn       6.49       5.62       0.94
H       8.23       0.88      12.69
H       5.12      13.20      15.88
H       7.98      10.46      12.97
H       8.20      12.93      12.81
H       5.44       3.61      15.67
H       5.24       1.15      15.85
H       6.69       8.73       5.45
H       6.61       4.45       5.12
H       6.70       5.30       9.87
H       6.65       9.58      10.20
H       6.66       4.79      21.12
H       6.69       9.24      22.84
H       6.73       5.09      25.52
H       6.74       4.91      23.07
H       6.71       8.94      18.44
H       6.74       9.12      20.89
H      11.08       5.31      14.28
H      10.74       9.58      14.36
H       2.28       8.75      14.32
H       2.62       4.47      14.26
H       8.22      13.16       2.62
H       5.16       0.86      28.09
H       7.95       3.57       2.33
H       8.15       1.11       2.49
H       5.52      10.44      28.30
H       5.34      12.91      28.12
H      11.04       8.75       1.04
H      10.70       4.47       0.98
H       2.24       5.31       1.03
H       2.58       9.59       1.08
C       6.67       6.82      16.88
C       4.07       6.76      14.26
C       6.68       7.31      11.66
C       9.28       7.30      14.29
C       6.73       7.22      27.08
C       4.03       7.30       1.07
C       6.65       6.73       3.65
C       9.24       6.75       1.02
C       7.59       2.79      13.37
C       7.57       1.41      13.38
C       5.77      11.28      15.20
C       5.79      12.67      15.20
C       7.38      11.13      13.58
C       7.49      12.51      13.51
C       6.02       2.95      15.03
C       5.93       1.57      15.12
C       6.72       0.76      14.28
C       6.68      13.32      14.33
C       6.68       7.76       5.93
C       6.65       5.34       5.75
C       6.67       5.23       7.12
C       6.69       6.37       7.97
C       6.70       6.28       9.38
C       6.67       8.70       9.56
C       6.68       8.81       8.19
C       6.69       7.67       7.34
C       6.66       6.62       5.15
C       6.68       7.42      10.17
C       6.68       6.81      18.38
C       6.72       7.22      25.58
C       6.66       5.67      19.19
C       6.68       5.74      20.58
C       6.71       8.37      24.77
C       6.71       8.30      23.38
C       6.73       5.99      24.91
C       6.73       5.90      23.53
C       6.70       8.04      19.06
C       6.72       8.13      20.44
C       6.71       6.98      21.24
C       6.72       7.06      22.72
C      11.56       6.28      14.30
C      11.37       8.70      14.34
C      12.74       8.82      14.35
C       0.38       7.68      14.32
C       1.79       7.77      14.31
C       1.98       5.35      14.28
C       0.61       5.24      14.30
C      12.97       6.38      14.31
C      10.78       7.42      14.31
C       2.58       6.64      14.29
C       7.57      11.25       1.94
C       7.56      12.64       1.93
C       5.71       2.77       0.12
C       5.72       1.39       0.11
C       7.33       2.91       1.72
C       7.43       1.54       1.79
C       5.99      11.10       0.29
C       5.91      12.48       0.20
C       6.70      13.29       1.03
C       6.61       0.73       0.98
C      11.52       7.78       1.03
C      11.33       5.36       1.00
C      12.71       5.24       1.01
C       0.34       6.38       1.02
C       1.75       6.29       1.04
C       1.94       8.71       1.06
C       0.57       8.82       1.04
C      12.93       7.68       1.03
C      10.74       6.64       1.01
C       2.54       7.43       1.06
N       6.85       3.56      14.16
N       6.52      10.51      14.43
N       6.82      10.48       1.16
N       6.47       3.54       0.89
Cl       6.67      10.40       7.49
Cl       6.66       3.64       7.82
Cl      13.13       3.64      14.30
Cl       0.22      10.41      14.37
Cl      13.09      10.42       1.04
Cl       0.19       3.65       1.00
O       6.77       5.72      16.26
O       6.57       7.97      16.35
O       4.55       7.94      14.26
O       4.75       5.68      14.25
O       6.64       8.40      12.32
O       6.71       6.13      12.16
O       8.80       6.12      14.22
O       8.62       8.38      14.36
O       6.83       8.32      27.71
O       6.64       6.06      27.62
O       4.51       6.12       1.07
O       4.71       8.38       1.09
O       6.60       5.63       3.00
O       6.68       7.90       3.15
O       8.76       7.93       1.09
O       8.57       5.67       0.97
F       8.40       3.43      12.51
F       4.93      10.64      16.03
F       6.62       4.42      18.65
F       6.69       9.61      25.31
F       8.38      10.61       2.80
F       4.98       3.42      27.94
