280

Cd      16.61      14.04      16.32
Cd       2.77       2.72       8.16
Cd      17.33      15.42      13.23
Cd      18.65       5.22       5.87
Cd      10.35       7.22       3.09
Cd       9.03      17.43      10.44
H      19.57      16.04       1.79
H      16.41      15.87       1.66
H       8.11       6.60      14.53
H      11.27       6.77      14.65
H      18.54      14.92       0.83
H      17.43      17.14       2.43
H       9.13       7.73      15.49
H      10.25       5.51      13.89
H      19.72      11.78       2.54
H      16.26      16.51       5.95
H       7.96      10.87      13.77
H      11.42       6.14      10.37
H      18.21      12.73       2.75
H      17.77      16.01       5.11
H       9.47       9.91      13.57
H       9.91       6.64      11.21
H      20.65      13.75       0.16
H      15.33      18.14       3.33
H       7.03       8.90      16.16
H      12.35       4.50      12.99
H      21.63      14.84       1.20
H      14.34      16.81       2.63
H       6.05       7.81      15.12
H      13.33       5.84      13.69
H      19.64      14.16       4.33
H      16.34      14.06       4.25
H       8.04       8.48      11.99
H      11.34       8.59      12.06
H      21.11      13.24       3.87
H      14.86      14.79       4.98
H       6.56       9.40      12.45
H      12.82       7.86      11.34
H      17.12      10.96       2.45
H      18.86      16.86       6.70
H      10.56      11.69      13.87
H       8.82       5.79       9.62
H      15.01       9.90       1.68
H      20.97      17.92       7.45
H      12.67      12.74      14.64
H       6.71       4.72       8.87
H      21.40      16.53      13.96
H      14.58       4.17       5.05
H       6.28       6.11       2.36
H      13.10      18.47      11.27
H      23.48      17.68      14.72
H      12.50       3.09       4.21
H       4.20       4.97       1.60
H      15.18      19.55      12.11
H      11.47      19.36      15.41
H       7.91       1.90       2.83
H      16.21       3.28       0.90
H      19.77      20.75      13.49
H      13.38      18.63      14.02
H       6.00       3.45       3.09
H      14.30       4.02       2.30
H      21.68      19.19      13.23
H       9.01      10.38       0.76
H      10.38      18.64       6.71
H      18.67      12.26      15.56
H      17.30       4.01       9.61
H       7.05      11.05       2.12
H      12.33      17.14       6.51
H      20.63      11.60      14.20
H      15.35       5.51       9.81
H      22.95      17.18       3.72
H      13.03      13.68       1.20
H       4.73       5.47      12.60
H      14.65       8.96      15.12
H       7.78      17.80       5.68
H      11.60      11.63       1.23
H      19.90       4.85      10.64
H      16.08      11.02      15.09
H      22.55      14.68       8.00
H      13.43      10.42       4.92
H       5.13       7.97       8.32
H      14.25      12.23      11.39
H      21.13      14.04       6.06
H      14.84      12.46       4.92
H       6.55       8.61      10.26
H      12.84      10.19      11.40
H      16.15      17.39      10.96
H       3.23       6.74       3.29
H      11.52       5.26       5.36
H      24.45      15.90      13.02
H      19.99      18.70       9.71
H      15.98       7.52       1.65
H       7.69       3.95       6.61
H      11.69      15.12      14.67
H      20.26      16.82      11.74
H      15.72       6.19       4.08
H       7.42       5.83       4.58
H      11.96      16.45      12.24
H      15.68      17.68       8.69
H       3.70       8.81       2.29
H      12.00       4.96       7.63
H      23.97      13.84      14.03
H      13.17       3.50       9.26
H      22.81      12.75      15.93
H      14.51      19.15       7.05
H       4.87       9.90       0.39
C      19.92      13.93       2.19
C      16.06      16.16       3.80
C       7.76       8.72      14.13
C      11.62       6.48      12.52
C      19.00      15.10       1.82
C      16.98      16.14       2.57
C       8.68       7.55      14.49
C      10.70       6.51      13.75
C      19.12      12.62       2.15
C      16.86      16.62       5.03
C       8.56      10.03      14.17
C      10.82       6.03      11.29
C      21.06      13.89       1.17
C      14.92      17.14       3.51
C       6.62       8.75      15.15
C      12.76       5.51      12.81
C      20.47      14.10       3.61
C      15.50      14.76       4.09
C       7.21       8.55      12.71
C      12.17       7.88      12.23
C      17.65      11.68       0.47
C      18.33      18.51       5.39
C      10.03      10.97      15.85
C       9.35       4.14      10.93
C      16.85      11.00       1.40
C      19.13      17.84       6.32
C      10.83      11.64      14.92
C       8.55       4.81      10.00
C      15.67      10.39       0.96
C      20.31      18.45       6.77
C      12.01      12.25      15.36
C       7.37       4.20       9.55
C      20.84      15.86      15.93
C      15.13       2.52       6.32
C       6.83       6.79       0.39
C      12.55      20.13      10.00
C      21.68      16.51      15.01
C      14.29       3.18       5.41
C       5.99       6.13       1.31
C      13.39      19.46      10.91
C      22.84      17.14      15.43
C      13.13       2.59       4.94
C       4.83       5.50       0.89
C      14.55      20.06      11.38
C      19.55      15.27      15.46
C      16.43       3.14       6.72
C       8.13       7.37       0.86
C      11.25      19.50       9.60
C       6.36      12.51       0.70
C      13.02      18.03       4.67
C      21.32      10.14      15.62
C      14.66       4.62      11.65
C      12.13      18.58      15.78
C       7.25       1.80       3.69
C      15.55       4.07       0.54
C      20.43      20.84      12.63
C      13.21      18.17      14.99
C       6.17       2.67       3.83
C      14.47       4.48       1.32
C      21.50      19.97      12.49
C      14.09      17.17      15.44
C       5.30       2.57       4.91
C      13.59       5.47       0.88
C      22.38      20.08      11.40
C       8.32      11.14       0.38
C      11.06      18.76       5.87
C      19.36      11.51      15.94
C      16.62       3.88      10.45
C       7.23      11.51       1.15
C      12.15      17.91       5.77
C      20.45      11.14      15.17
C      15.53       4.73      10.55
C      15.22      16.74      14.58
C       4.16       3.52       5.05
C      12.46       5.90       1.74
C      23.52      19.13      11.27
C      21.97      15.57       4.76
C      14.01      13.20       3.05
C       5.71       7.07      11.56
C      13.67       9.44      13.27
C      22.87      16.64       4.66
C      13.10      12.96       2.01
C       4.80       6.01      11.66
C      14.58       9.69      14.31
C       7.07      16.98       5.75
C      12.31      11.82       2.03
C      20.61       5.67      10.57
C      15.37      10.83      14.28
C       6.96      16.27       6.96
C      12.42      10.90       3.09
C      20.72       6.38       9.36
C      15.26      11.75      13.23
C      22.63      15.22       7.05
C      13.34      11.14       4.12
C       5.05       7.43       9.27
C      14.34      11.50      12.20
C      21.84      14.86       5.96
C      14.14      12.29       4.11
C       5.84       7.79      10.36
C      13.54      10.36      12.21
C       7.79      16.64       8.13
C      11.59       9.67       3.10
C      19.89       6.00       8.19
C      16.09      12.97      13.21
C      17.23      17.44      10.87
C      18.74       6.81       3.22
C      10.45       5.21       5.45
C       8.94      15.83      13.10
C      19.25      18.14      10.26
C      16.72       7.17       2.36
C       8.43       4.51       6.06
C      10.95      15.47      13.96
C      19.37      17.20      11.26
C      16.61       6.52       3.56
C       8.31       5.44       5.06
C      11.07      16.12      12.76
C      17.26      19.11       9.07
C      18.72       8.00       1.06
C      10.42       3.54       7.25
C       8.96      14.65      15.26
C      16.07      18.67       8.46
C       3.31       8.71       1.28
C      11.60       3.97       7.85
C      24.37      13.94      15.04
C      12.26       3.16       8.77
C      23.72      13.33      16.10
C      15.42      19.49       7.55
C       3.96       9.32       0.22
N      18.10      16.78      11.63
N      17.87       6.31       4.08
N       9.58       5.87       4.69
N       9.80      16.34      12.24
N      17.89      18.27      10.02
N      18.09       7.36       2.16
N       9.79       4.37       6.30
N       9.59      15.29      14.16
O      17.99      15.17       2.82
O       9.69       7.48      13.50
O      18.79      12.37       0.78
O      17.18      17.99       4.83
O       8.89      10.28      15.54
O      10.49       4.65      11.48
O       5.32      12.80       1.53
O      14.06      17.15       4.66
O      22.36       9.84      14.79
O      13.62       5.50      11.66
O      21.24      15.30       3.63
O      14.73      14.36       2.95
O       6.44       7.34      12.69
O      12.94       8.29      13.37
O      19.32      15.37      14.21
O      16.65       4.30       6.24
O       8.36       7.28       2.11
O      11.02      18.34      10.08
O      13.24       9.31       0.02
O      22.74      19.68       7.50
O      14.44      13.34      16.30
O       4.94       2.96       8.82
O      15.29      17.08      13.37
O       4.09       4.56       4.34
O      12.39       5.56       2.95
O      23.59      18.09      11.97
O      16.15      16.00      15.12
O       3.23       3.24       5.93
O      11.53       6.65       1.20
O      24.44      19.41      10.39
O       8.62      17.63       8.02
O      10.76       9.47       2.13
O      19.06       5.02       8.30
O      16.91      13.18      14.18
O       7.68      15.99       9.22
O      11.70       8.84       4.06
O      19.99       6.65       7.10
O      15.98      13.81      12.25
