244

Zn      23.27      18.77      17.00
Zn      13.07       2.02      14.32
Zn      20.07      18.68      16.88
Zn      12.85       3.80      16.95
Zn      20.03       8.28      23.70
Zn      23.25       8.39      23.89
Zn      21.51       7.29      26.37
Zn      21.78       5.56      23.75
Zn      12.91      14.19      10.10
Zn      13.07      12.41       7.43
Zn      11.41      15.19       7.46
Zn      14.57      15.23       7.54
Zn      22.40       7.85       0.53
Zn      23.93      10.67       0.72
Zn       5.92       7.90       0.67
Zn      10.77      12.88      30.63
H      17.12       6.98      21.21
H      17.50       2.37      19.51
H      15.34      15.70      12.97
H      19.31      18.19      11.44
H      25.78       9.98      30.95
H      26.18      10.19      26.04
H       6.68      12.73       3.23
H      10.64      10.35       4.93
H      18.50      14.49      19.69
H      19.07      15.81      18.69
H      24.79      12.75      21.34
H      24.23      11.27      22.10
H      13.37       5.39      10.24
H      13.17       4.33      11.60
H      13.04      10.83      14.19
H      12.91      11.89      12.81
H      24.69      18.10      10.24
H      23.81      18.68      11.62
H       9.75      15.42      14.19
H      10.80      15.12      12.83
H       9.95       6.96      20.03
H      10.84       5.91      18.96
H      13.86      19.97      20.99
H      23.83       3.43      21.81
H      18.42       8.58      30.46
H      19.45       8.24      29.09
H      13.67      11.27      26.52
H      12.78      11.84      27.90
H      30.24      18.17      25.23
H      30.40      19.85      24.80
H      29.94      19.69      31.78
H      30.12      18.01      32.23
H      16.22       9.12       4.70
H      15.19      10.26       5.54
H      20.97      13.80       3.78
H      21.86      12.76       2.70
H       7.46       1.95       5.05
H      15.58      18.15       5.80
H      20.84       3.67       3.41
H      21.40       5.00       2.42
C      24.36      18.34      14.25
C      19.24      18.16      14.06
C      21.65      16.63      18.29
C      10.27       3.33      18.30
C      15.35       3.50      18.54
C      12.96       4.98      14.23
C      21.67      10.40      22.41
C      24.03       8.84      26.70
C      18.93       8.71      26.44
C      21.65       4.33      26.43
C      19.26       5.84      22.20
C      24.36       6.04      22.42
C      12.98      11.24      10.17
C      10.58      12.78       5.90
C      10.31      15.61      10.19
C      13.02      17.28       6.12
C      15.40      15.75      10.36
C      15.69      12.88       6.12
C      21.30      10.20       2.00
C       6.74      10.30       2.25
C       4.29       5.80       1.98
C      13.35      11.46      30.54
C      27.94      11.31      30.29
C      30.33      15.84      30.61
C      16.32       4.15      19.47
C      18.29       5.19      21.26
C      16.23       5.48      19.97
C      18.39       3.87      20.76
C      17.20       5.96      20.84
C      17.42       3.39      19.89
C      18.23      17.52      13.16
C      16.43      16.38      11.26
C      17.09      16.80      13.58
C      17.57      17.10      10.83
C      16.22      16.26      12.64
C      18.43      17.64      11.78
C      20.54      14.66      19.49
C      22.78      12.35      21.19
C      21.66      15.42      19.08
C      21.66      11.60      21.60
C      22.35      13.48      20.42
C      20.96      13.55      20.27
C      13.03       6.30      12.05
C      12.91       9.92      12.36
C      12.96       6.19      13.45
C      12.97      10.02      10.96
C      12.94       8.55      12.75
C      13.02       7.67      11.66
C      25.58      17.82      12.07
C      28.78      16.12      12.38
C      25.46      17.82      13.47
C      28.91      16.14      10.98
C      27.55      16.73      12.76
C      26.79      17.19      11.68
C       9.07       5.15      19.61
C       5.87       4.23      21.08
C       9.18       3.85      19.08
C       5.76       5.53      21.61
C       7.10       4.10      20.36
C       7.86       5.27      20.35
C      25.00       9.46      27.67
C      26.96      10.70      29.32
C      24.89       9.41      29.08
C      27.07      10.76      27.91
C      25.87      10.02      29.86
C      26.09      10.15      27.13
C      17.74       9.24      28.63
C      14.55      10.96      28.35
C      17.86       9.26      27.23
C      14.43      10.94      29.75
C      15.76      10.32      27.95
C      16.52       9.86      29.03
C      30.39      19.49      26.78
C      30.27      18.37      30.24
C      30.33      20.82      27.23
C      30.34      17.03      29.80
C      30.27      19.25      29.13
C      30.36      18.60      27.90
C       9.56      12.20       4.97
C       7.76      10.89       3.19
C       8.42      12.87       4.47
C       8.90      10.21       3.68
C       7.55      12.21       3.61
C       9.77      10.88       4.55
C      16.89      11.06       4.79
C      20.09      12.01       3.32
C      16.77      12.36       5.32
C      20.21      10.72       2.79
C      18.87      12.12       4.06
C      18.12      10.94       4.07
C       5.45       1.55       4.90
C       3.19       3.85       3.21
C       4.34       0.80       5.32
C       4.30       4.60       2.78
C       3.63       2.74       3.99
C       5.02       2.68       4.14
S      23.18      14.76      19.62
S      20.14      12.25      21.05
S      12.87       7.73      14.26
S      13.05       8.48      10.14
S      26.81      17.06      14.28
S      27.56      16.90      10.16
S       7.83       2.82      19.47
S       7.11       6.56      21.22
S      16.51      10.02      26.43
S      15.79      10.18      30.55
S      30.24      20.97      28.97
S      30.43      16.88      28.06
S      18.12      13.41       4.93
S      18.86       9.67       3.17
S       2.81       1.45       4.77
S       5.84       3.95       3.32
N      19.25      14.93      19.16
N      24.08      12.04      21.44
N      13.05       5.24      11.18
N      12.78      10.97      13.22
N      24.69      18.40      11.21
N      10.03      15.63      13.24
N       9.96       6.16      19.42
N       4.93       3.25      21.19
N      18.67       8.75      29.49
N      13.65      11.53      27.49
N      30.52      19.11      25.48
N      30.24      18.76      31.55
N      15.96      10.08       4.91
N      20.97      13.03       3.13
N       6.75       1.24       5.15
N      21.58       4.11       2.88
Cl      14.96       6.58      19.55
Cl      19.68       2.78      21.14
Cl      16.67      16.53      15.24
Cl      18.00      17.34       9.18
Cl      23.61       8.63      29.93
Cl      28.33      11.57      27.06
Cl       8.00      14.50       4.87
Cl       9.32       8.59       3.29
O      21.66      19.65      16.27
O      24.44      18.22      15.53
O      20.25      18.70      13.48
O      20.49      17.06      17.90
O      23.39      18.90      13.61
O      22.78      17.18      18.04
O      19.02      18.12      15.31
O      18.88      19.77      17.96
O      14.33       4.17      18.19
O      11.23       4.14      18.00
O      15.63       2.31      18.17
O      13.01       3.85      13.60
O      12.91       5.11      15.51
O      21.65       7.39      24.42
O      20.53       9.87      22.68
O      24.25       9.06      25.46
O      19.91       8.16      27.09
O      22.82       9.96      22.80
O      18.84       8.80      25.16
O      23.08       8.16      27.18
O      21.52       5.45      27.03
O      20.21       5.13      22.65
O      21.77       4.18      25.15
O      19.05       7.07      22.48
O      24.46       7.25      22.84
O      23.38       5.24      22.67
O      12.99      14.24       8.15
O      12.91      12.36      10.82
O      11.53      12.01       6.26
O      10.22      15.72       8.92
O      13.07      11.11       8.90
O      11.30      15.06      10.83
O      10.41      13.99       6.27
O      11.88      16.76       6.42
O      15.54      15.92       9.11
O      14.17      16.82       6.47
O      14.48      15.08      10.93
O      14.70      12.08       6.38
O      15.79      14.09       6.52
O      24.01       8.85       0.01
O      21.23       8.97       1.63
O       5.74      11.05       1.96
O       5.43       6.34       1.72
O      22.28      11.01       1.73
O      22.82       6.25       1.59
O       6.94       9.13       1.82
O      13.42      11.31      31.81
O      28.96      11.89      29.81
O      12.38      12.04      29.90
O      27.65      11.20      31.53
O      30.28      15.99      31.89
O      30.38      14.72      29.99
