100

Zn      14.83       0.56       1.16
Zn       8.29      12.42       1.32
Zn       1.99       0.66       1.41
Zn       8.48       3.94      12.90
Zn      17.94       7.89       6.94
Zn      16.49      10.83       7.08
Zn      16.29       8.73       9.57
Zn      14.80       8.13       6.98
H      19.76      11.79       0.26
H      17.51       9.39       2.76
H      20.66      11.78       4.48
H      22.90      15.08       5.61
H      14.89       3.79       8.17
H      17.08       4.10       4.46
H      23.05       8.81      13.08
H      20.40      10.27      10.27
H      20.56       6.01      10.95
H      12.42      11.18       0.21
H      15.13       9.13       2.56
H      12.57      12.05       4.44
H      29.21      14.72      13.27
H      13.28      11.48      10.71
H      16.67      14.17      10.71
H      25.29       8.33      12.69
H      11.56       9.87       9.58
H      12.80       6.15      11.37
C      21.56      12.72       2.04
C      20.37      11.87       2.33
C      19.56      11.43       1.27
C      18.31      10.12       2.66
C      19.00      10.56       3.79
C      20.07      11.44       3.63
C      18.54      10.10       5.14
C      16.23       1.65       3.51
C      16.03       2.24       4.87
C      23.25      16.09       5.82
C      15.25       3.35       7.23
C      16.01       4.12       6.35
C      16.47       3.53       5.16
C      16.21       5.58       6.60
C      22.49       6.15      12.89
C      21.90       7.27      12.09
C      22.30       8.59      12.33
C      20.82       9.40      10.78
C      20.32       8.12      10.50
C      20.90       7.02      11.14
C      19.12       7.99       9.63
C      11.11      12.57       2.12
C      12.33      11.72       2.31
C      12.84      11.02       1.20
C      14.35       9.89       2.50
C      13.93      10.56       3.66
C      12.92      11.51       3.56
C      14.51      10.16       4.98
C      15.66      15.73      12.81
C      15.03      14.59      12.07
C      13.75      14.17      12.48
C      13.78      12.38      11.07
C      15.07      12.71      10.60
C      15.68      13.87      11.06
C      15.74      11.70       9.71
C      10.56       5.96      13.03
C      10.99       7.08      12.13
C      10.17       8.22      12.03
C      11.42       9.08      10.32
C      12.34       8.02      10.39
C      12.11       6.99      11.31
C      13.54       8.04       9.52
N      18.57      10.56       1.42
N      22.90      16.61       7.01
N      21.80       9.64      11.66
N      13.85      10.14       1.29
N      13.11      13.12      11.96
N      10.37       9.19      11.14
O       8.48      14.22       0.58
O      22.68      12.32       2.50
O      21.37      13.74       1.30
O      18.13      10.99       5.95
O      18.56       8.84       5.33
O      17.38       1.72       2.97
O      15.17       1.14       3.01
O      15.16       6.19       6.99
O      17.36       6.08       6.40
O      23.01       5.17      12.27
O      22.42       6.30      14.16
O      18.00       8.11      10.25
O      19.30       7.80       8.38
O      11.26      13.82       2.03
O      10.03      11.90       2.03
O      14.45       8.91       5.23
O      15.01      11.06       5.72
O      16.19      16.68      12.15
O      15.58      15.63      14.08
O      15.76      10.53      10.20
O      16.19      12.07       8.58
O       2.66       1.89       0.01
O      10.16       4.89      12.46
O      13.38       8.43       8.32
O      14.66       7.71      10.05
O      16.46       8.96       7.64
