112

Na       5.08       1.98      13.49
Na       1.47       5.49       0.00
Yb       1.50       1.91      13.49
Yb       5.12       5.56       0.00
H       1.24      12.37       3.68
H       4.85      -4.90       9.81
H       4.85       2.57       3.68
H       1.24       4.90       9.81
H       5.29      11.45       2.58
H       1.68      -3.98      10.90
H       1.68       3.49       2.58
H       5.29       3.98      10.90
H       2.07      -1.19       5.61
H       5.68       8.66       7.88
H       5.68       1.19       5.61
H       2.07       6.28       7.88
H       6.12      -2.03       4.45
H       2.51       9.50       9.03
H       2.51       2.03       4.45
H       6.13       5.44       9.04
H       3.91       1.45       7.39
H       0.30       6.01       6.10
H       0.30      -1.45       7.39
H       3.91       8.92       6.10
H       4.18      -2.84       7.60
H       0.57      10.31       5.89
H       0.57       2.84       7.60
H       4.18       4.63       5.89
H       3.09       1.52       9.75
H       6.71       5.95       3.74
H       6.71      -1.52       9.75
H       3.09       8.99       3.74
H       3.49      -2.74      10.01
H       7.10      10.21       3.48
H       7.10       2.74      10.01
H       3.49       4.73       3.48
C       2.70      10.99       1.90
C       6.31      -3.53      11.59
C       6.31       3.94       1.90
C       2.70       3.53      11.59
C       3.21      11.82       3.03
C       6.82      -4.35      10.46
C       6.82       3.12       3.03
C       3.21       4.35      10.46
C       2.30      12.46       3.88
C       5.92      -4.99       9.61
C       5.92       2.48       3.88
C       2.31       4.99       9.61
C       4.59      11.96       3.25
C       0.97      -4.49      10.24
C       0.97       2.98       3.25
C       4.59       4.49      10.24
C       2.76      -1.72       4.95
C       6.37       9.19       8.54
C       6.37       1.72       4.95
C       2.76       5.75       8.54
C       5.06      -2.18       4.29
C       1.45       9.65       9.20
C       1.44       2.18       4.29
C       5.06       5.29       9.20
C       4.14      -1.56       5.14
C       0.52       9.03       8.35
C       0.52       1.56       5.14
C       4.14       5.91       8.35
C       4.07      -0.69       7.37
C       0.46       8.16       6.12
C       0.46       0.69       7.37
C       4.07       6.78       6.12
C       3.78       0.54       7.96
C       0.17       6.93       5.53
C       0.17      -0.54       7.96
C       3.78       8.01       5.53
C       3.93      -1.89       8.08
C       0.31       9.36       5.41
C       0.31       1.89       8.08
C       3.93       5.58       5.41
C       3.33       0.57       9.28
C       6.94       6.90       4.21
C       6.94      -0.57       9.28
C       3.33       8.04       4.21
C       3.53      -1.84       9.40
C       7.14       9.31       4.08
C       7.14       1.84       9.40
C       3.53       5.63       4.08
C       3.21      -0.61      10.01
C       6.82       8.08       3.47
C       6.82       0.61      10.01
C       3.21       6.86       3.47
C       2.85      -0.62      11.46
C       6.46       8.09       2.03
C       6.46       0.62      11.46
C       2.85       6.84       2.03
O       1.49      11.13       1.50
O       5.11      -3.66      11.99
O       5.11       3.81       1.50
O       1.49       3.66      11.99
O       3.46      10.12       1.36
O       7.08      -2.65      12.13
O       7.07       4.81       1.36
O       3.46       2.65      12.13
O       4.63      -0.69       6.10
O       1.01       8.16       7.39
O       1.01       0.69       6.10
O       4.63       6.78       7.39
O       2.12       0.28      11.97
O       5.73       7.19       1.52
O       5.73      -0.28      11.97
O       2.12       7.75       1.52
O       3.29      -1.62      12.14
O       6.90       9.09       1.35
O       6.90       1.62      12.14
O       3.29       5.85       1.35
