171

Mg      -5.12      11.73       6.77
Mg       1.71       3.91       6.77
Mg      -1.71       7.82       0.00
H      -1.82      -0.97       5.55
H       1.61       3.50       9.93
H       5.02      -2.53      11.62
H       5.25       8.80       8.00
H       1.82       4.32       3.62
H      -1.60      10.35       1.93
H      -0.25       0.60       4.35
H       3.18       3.76      11.89
H       6.59      -4.36      10.86
H       3.67       7.22       9.20
H       0.25       4.07       1.65
H      -3.17      12.18       2.69
H       2.04      -0.22       3.77
H      -4.79       4.67      11.47
H      -1.38      -4.45      11.86
H       1.38       8.04       9.78
H       8.22       3.15       2.08
H       4.80      12.27       1.69
H      -1.92       7.43       8.14
H       4.92       4.88       2.36
H       1.50      11.15       3.04
H       5.34       0.39       5.41
H      -1.50       2.94      11.18
H       1.92      -3.33      10.50
H      -0.45       5.43       8.38
H       6.39       5.67       0.51
H       2.97      12.37       4.66
H       3.87       2.40       5.17
H      -2.97       2.15      13.04
H       0.45      -4.54       8.88
H       2.02       6.70       5.30
H      -1.40       7.70       3.15
H       5.44       9.07       5.10
H       1.40       1.13       8.24
H       4.82       0.12      10.40
H      -2.02      -1.25       8.45
H       0.68       8.78       4.97
H      -2.75       6.95       5.12
H       4.09       7.74       3.46
H       2.75      -0.96       8.58
H       6.17       0.88       8.43
H      -0.67       0.08      10.09
H      -0.10      11.99       4.57
H      -3.53       5.69       8.09
H       3.32       5.79       0.88
H       3.53      -4.16       8.98
H       6.95       2.13       5.46
H       0.11       2.03      12.66
H       3.87      -1.97       4.68
H      -2.97       4.75       9.50
H       0.45      -2.78      12.91
H      -0.45       9.79       8.87
H       6.39       3.07       4.05
H       2.97      10.60       0.64
H      -0.17      13.06       3.14
H      -3.59       6.39       9.74
H       3.25       4.02       0.67
H       3.59      -5.24      10.40
H       7.01       1.43       3.81
H       0.17       3.81      12.88
C      -0.81      -1.28       5.26
C       2.62       3.91       9.81
C       6.03      -2.63      12.02
C       4.23       9.10       8.29
C       0.81       3.92       3.74
C      -2.61      10.45       1.52
C       0.06      -0.41       4.60
C       3.49       4.05      10.89
C      -3.36      -3.64      11.61
C       3.36       8.23       8.95
C      -0.06       3.78       2.66
C       6.78      11.46       1.94
C       1.33      -0.88       4.28
C       4.76       4.56      10.65
C      -2.09      -3.68      12.17
C       2.09       8.70       9.27
C      -1.33       3.27       2.90
C       5.51      11.50       1.38
C       1.74      -2.18       4.61
C       5.16       4.92       9.35
C      -1.68      -2.74      13.13
C       1.69      10.00       8.94
C      -1.74       2.90       4.19
C       5.10      10.56       0.42
C       0.79      -2.98       5.29
C       4.22       4.73       8.32
C      -2.62      -1.75      13.49
C       2.63      10.81       8.26
C      -0.80       3.09       5.23
C       6.05       9.57       0.06
C      -2.38      11.29       5.76
C       4.46       5.01       6.89
C       1.04       7.17       0.89
C       5.80      -3.47       7.79
C      -1.04       2.81       6.65
C       2.38       0.65      12.66
C      -1.61       9.41       6.32
C       5.22       5.46       4.99
C       1.81       8.60       2.23
C       5.03      -1.59       7.22
C      -1.80       2.36       8.56
C       1.62      -0.77      11.31
C      -0.75       8.26       6.52
C       6.09       5.87       3.89
C       2.67       9.34       3.13
C       4.17      -0.44       7.03
C      -2.67       1.96       9.65
C       0.75      -1.51      10.41
C      -1.04       7.31       7.50
C       5.79       5.49       2.57
C       2.38      10.67       3.47
C       4.47       0.52       6.05
C      -2.37       2.33      10.98
C       1.05      -2.85      10.08
C      -0.23       6.19       7.63
C       6.61       5.94       1.54
C       3.19      11.34       4.37
C       3.65       1.63       5.92
C      -3.18       1.89      12.00
C       0.23      -3.51       9.18
C       1.15       6.90       5.92
C      -2.27       7.06       3.01
C       4.57       9.50       4.61
C       2.27       0.92       7.62
C       5.70       0.76      10.53
C      -1.15      -1.68       8.94
C       0.40       8.06       5.73
C       7.24       6.65       4.11
C       3.82       8.76       3.70
C       3.02      -0.23       7.81
C      -3.81       1.18       9.44
C      -0.40      -0.94       9.84
C      -0.29      13.01       4.24
C      -3.72       5.47       9.14
C       3.12       4.99       0.16
C       3.72      -5.19       9.31
C       7.14       2.35       4.40
C       0.30       2.83      13.38
N      -0.45      -2.52       5.59
N       2.97       4.24       8.56
N      -3.87      -1.71      12.94
N       3.88      10.34       7.95
N       0.45       3.58       4.98
N       7.29       9.54       0.61
N      -3.34      10.66       6.49
N       3.49       4.69       5.99
N       0.08       8.11       1.07
N       6.76      -2.84       7.06
N      -0.07       3.13       7.56
N       3.35      -0.29      12.48
N      -2.86       9.47       6.87
N       3.98       4.96       4.76
N       0.56       9.04       1.92
N       6.28      -1.64       6.68
N      -0.56       2.86       8.78
N       2.86      -1.21      11.63
N      -1.28      10.52       5.62
N       5.56       5.52       6.30
N       2.14       7.43       1.62
N       4.70      -2.70       7.93
N      -2.14       2.31       7.25
N       1.28       0.39      11.92
N       0.84       5.96       6.84
N       7.68       6.73       1.74
N       4.26      10.77       4.96
N       2.58       1.86       6.70
N      -4.26       1.09      11.81
N      -0.84      -2.95       8.59
