252

Tb      11.42       5.17      21.72
Tb      17.97      15.89      12.46
Tb       8.18      13.64       1.06
Tb       1.64       2.92      10.33
Zn      11.47      10.04      14.61
Zn       4.93      11.04      19.57
Zn       8.14       8.77       8.18
Zn      14.67       7.78       3.21
H      15.44       9.32      17.78
H       8.90      11.74      16.39
H       4.17       9.49       5.01
H      10.71       7.07       6.40
H      14.46       7.38      19.05
H       7.92      13.69      15.12
H       5.15      11.43       3.73
H      11.69       5.13       7.67
H      12.88       6.88       9.80
H       6.36       9.69       1.60
H       6.73      11.94      12.99
H      13.25       9.13      21.19
H      12.08      12.58      16.41
H       5.54       8.48      17.78
H       7.53       6.23       6.38
H      14.07      10.33       5.01
H      10.89      13.36      17.03
H       4.37       7.69      17.15
H       8.71       5.46       5.76
H      15.24      11.12       5.64
H      17.36      17.33      19.73
H      10.83       3.74      14.44
H       2.24       1.48       3.06
H       8.78      15.08       8.34
H      10.66       4.48      19.04
H      17.20      16.59      15.14
H       8.95      14.33       3.75
H       2.41       2.22       7.65
H       9.69      13.17       9.82
H       3.15       3.40       1.57
H       9.92       5.65      12.96
H      16.45      15.41      21.21
H       9.51       0.35       1.26
H      16.05      16.19      10.13
H      10.09      18.46      21.52
H       3.55       2.62      12.66
H       8.92       1.51       0.22
H      15.46      15.04      11.17
H      10.69      17.31      22.56
H       4.15       3.77      11.62
H      12.93      12.63      13.37
H       6.39       8.45      20.81
H       6.68       6.19       9.41
H      13.22      10.37       1.98
H      12.79       7.29      14.06
H       6.26      13.78      20.12
H       6.81      11.52       8.72
H      13.34       5.03       2.67
H      10.99       7.64      16.52
H      17.53      13.43      17.66
H       8.62      11.17       6.27
H       2.07       5.38       5.12
H      10.12      12.89      14.09
H       3.58       8.19      20.09
H       9.48       5.93       8.70
H      16.02      10.62       2.69
H      11.77       9.12       9.61
H       5.25       7.45       1.79
H       7.83       9.70      13.18
H      14.36      11.37      21.00
H      10.79      10.93       9.62
H       4.25       5.64       1.78
H       8.82       7.88      13.17
H      15.35      13.18      21.01
H      16.28      10.54      16.31
H       9.74      10.52      17.87
H       3.33       8.27       6.48
H       9.87       8.30       4.92
H      16.95      12.47      14.84
H      10.41       8.59      19.34
H       2.66       6.34       7.95
H       9.20      10.23       3.45
H       7.16      17.55      21.15
H       0.61       3.52      13.03
H      12.45       1.26       1.64
H      18.99      15.29       9.76
H       1.25       4.80      21.09
H       7.79      16.27      13.09
H      18.36      14.01       1.70
H      11.82       2.54       9.69
C      14.47       8.91      17.51
C       7.93      12.15      16.66
C       5.14       9.90       5.28
C      11.68       6.66       6.12
C      13.92       7.84      18.22
C       7.39      13.22      15.95
C       5.68      10.97       4.56
C      12.22       5.59       6.83
C      12.92       6.92      11.94
C       6.39      14.15      22.24
C       6.69      11.89      10.84
C      13.22       4.66       0.55
C      11.74       9.42      11.76
C       5.20      11.66      22.42
C       7.87       9.40      11.03
C      14.40       7.15       0.36
C      11.07      10.74      11.77
C       4.53      10.34      22.41
C       8.54       8.07      11.02
C      15.08       8.47       0.37
C      12.64       7.46      10.68
C       6.12       9.10       0.71
C       6.96      11.35      12.10
C      13.49       9.71      22.07
C      10.03      12.63      10.71
C       3.49       3.94       0.69
C       9.58       6.19      12.08
C      16.11      14.87      22.10
C      13.47       5.53      12.10
C       6.94      15.55      22.08
C       6.13      13.28      10.68
C      12.66       3.27       0.71
C       9.14      14.54      12.11
C       2.60       6.54      22.07
C      10.46       4.27      10.68
C      17.01      12.27       0.72
C      15.35      13.81      13.07
C       8.81       7.25      21.11
C       4.26       5.00       9.72
C      10.80      11.56       1.67
C      13.68      12.19      14.03
C       7.14       8.88      20.15
C       5.93       6.62       8.76
C      12.47       9.94       2.64
C       9.82      13.20      11.97
C       3.28       7.88      22.22
C       9.79       5.61      10.82
C      16.33      10.93       0.57
C      12.60       7.68      13.06
C       6.07      13.39      21.11
C       7.01      11.13       9.72
C      13.54       5.42       1.67
C      11.98       7.98      16.82
C       5.45      13.10      17.36
C       7.62      10.84       5.97
C      14.16       5.72       5.42
C      10.25      12.48      13.08
C       3.71       8.59      21.10
C       9.35       6.33       9.70
C      15.89      10.22       1.69
C      12.04       8.71      10.59
C       5.52       7.85       0.81
C       7.56      10.10      12.20
C      14.09      10.97      21.98
C      12.03       6.20      18.60
C       5.50      14.87      15.58
C       7.57      12.61       4.19
C      14.11       3.94       7.20
C      14.22      10.61      15.65
C       7.68      10.46      18.53
C       5.39       8.21       7.14
C      11.93       8.35       4.26
C      12.67       7.35      17.86
C       6.13      13.72      16.32
C       6.94      11.46       4.92
C      13.47       5.09       6.47
C      10.65      11.39      10.60
C       4.12       5.17       0.80
C       8.95       7.42      12.19
C      15.49      13.64      21.99
C      13.73       9.48      16.47
C       7.19      11.59      17.71
C       5.88       9.33       6.32
C      12.42       7.23       5.08
C      14.98      12.69      14.00
C       8.44       8.38      20.17
C       4.62       6.12       8.78
C      11.17      10.44       2.61
C      15.55      11.04      15.66
C       9.01      10.03      18.51
C       4.05       7.78       7.12
C      10.60       8.79       4.27
C      15.93      12.10      14.85
C       9.39       8.97      19.33
C       3.68       6.72       7.94
C      10.22       9.85       3.45
N      12.04       8.89      12.97
N       5.50      12.18      21.21
N       7.57       9.92       9.81
N      14.10       6.63       1.58
N      12.49       9.02      16.16
N       5.96      12.05      18.02
N       7.11       9.79       6.63
N      13.65       6.76       4.76
N      10.86      11.29      12.99
N       4.32       9.78      21.20
N       8.75       7.52       9.80
N      15.28       9.03       1.59
N      13.30      11.19      14.84
N       6.76       9.88      19.34
N       6.31       7.62       7.95
N      12.85       8.94       3.45
Cl       9.35       9.40      15.21
Cl      15.89      11.67      18.96
Cl      10.25       9.42       7.58
Cl       3.71       7.14       3.82
O      12.47       6.00      19.78
O       5.94      15.07      14.40
O       7.14      12.81       3.01
O      13.67       3.74       8.38
O      13.50       5.04      13.27
O       6.97      16.04      20.91
O       6.10      13.78       9.52
O      12.63       2.78       1.88
O       7.13      18.50      21.55
O       0.59       2.57      12.63
O      12.48       0.31       1.23
O      19.01      16.24      10.16
O       9.09      15.07      13.26
O       2.55       6.01      20.92
O      10.52       3.74       9.53
O      17.06      12.80       1.86
O      11.12       5.56      18.00
O      17.67      15.51      16.18
O       8.48      13.26       4.79
O       1.94       3.30       6.60
O      14.58      14.05      12.09
O       8.04       7.02      22.09
O       5.03       4.77      10.69
O      11.57      11.79       0.70
O       8.68      15.04      11.03
O       2.14       1.53       0.36
O      10.93       3.78      11.76
O      17.47      17.28      22.42
O      11.12      12.52      16.58
O       4.58       8.53      17.60
O       8.48       6.29       6.20
O      15.03      10.29       5.19
O      17.02      18.22      19.89
O      10.48       2.84      14.29
O       2.59       0.59       2.90
O       9.12      15.97       8.50
O       9.73       1.00       0.57
O      16.27      15.54      10.82
O       9.87      17.81      22.22
O       3.33       3.27      11.96
O      16.44      14.41      13.35
O       9.89       6.64      20.82
O       3.17       4.40       9.44
O       9.72      12.17       1.96
O      13.83       4.96      11.02
O       7.31      11.60       0.37
O       5.78      13.86      11.76
O      12.29       7.21      22.42
