100

Al       5.82       8.01       8.29
Al       2.49       7.99       8.30
Al       2.59       0.06       0.02
Al       5.93      15.95      16.57
H       0.22       2.61      12.06
H       3.56      13.39       4.53
H       0.66       3.88      10.17
H       3.99      12.13       6.42
H       2.30       4.28      10.69
H       5.64      11.73       5.90
H       2.94       4.66      13.67
H       6.27      11.35       2.93
H       2.82       6.19      11.94
H       6.15       9.82       4.66
H       5.41       3.89      13.30
H       2.07      12.12       3.29
H       5.39       5.12      11.34
H       2.06      10.89       5.25
H       5.70       6.56      12.28
H       2.36       9.45       4.31
H       1.83       5.65      14.61
H       5.17      10.36       1.99
H       3.26       2.82      12.49
H       2.21       1.48      12.99
H       2.46       1.81      11.26
H       6.59      13.18       4.10
H       5.54      14.53       3.60
H       5.79      14.19       5.33
H       0.63       7.65      13.53
H       2.37       7.92      13.65
H       1.52       8.30      12.13
H       3.96       8.36       3.06
H       5.70       8.09       2.95
H       4.86       7.71       4.46
H       4.75       6.07      14.38
H       1.42       9.94       2.21
H       4.16       6.27       8.03
H       0.83       9.74       8.56
H       4.33       1.75       0.15
H       1.00      14.25      16.44
C       4.15       9.50       6.40
C       0.81       6.51      10.20
C       4.15       9.68      10.05
C       0.82       6.33       6.54
C       0.81       5.35       5.48
C       4.15      10.65      11.11
C       0.81       4.51       4.59
C       4.15      11.49      12.00
C       0.82       3.58       3.61
C       4.15      12.42      12.98
C       0.83       2.73       2.73
C       4.17      13.27      13.86
C       1.13       3.22      12.21
C       4.46      12.78       4.38
C       1.26       4.22      11.03
C       4.59      11.78       5.56
C       1.96       5.14      13.64
C       5.29      10.86       2.95
C       6.16       4.70      13.36
C       2.82      11.31       3.23
C       0.88       4.05      13.52
C       4.21      11.96       3.08
C       0.82       5.65      11.45
C       4.15      10.36       5.14
C       1.86       6.16      12.48
C       5.19       9.84       4.12
C       6.08       5.55      12.07
C       2.75      10.45       4.52
C       4.22      14.28      14.89
C       0.89       1.73       1.70
C       4.23      12.89       1.88
C       0.90       3.11      14.71
C       2.33       2.28      12.25
C       5.66      13.73       4.34
C       1.57       7.58      12.97
C       4.91       8.42       3.63
C       5.69       5.49      14.57
C       2.36      10.51       2.03
O       3.01       9.29       9.63
O       6.35       6.72       6.96
O       5.28       9.20       6.89
O       1.95       6.81       9.70
O       5.29       9.30       9.63
O       1.96       6.70       6.96
O       6.35       6.84       9.71
O       3.02       9.17       6.88
O       4.16       7.19       8.32
O       0.82       8.81       8.27
O       5.37      13.15       1.36
O       2.03       2.86      15.23
O       3.10      14.72      15.31
O       6.44       1.29       1.28
O       3.12      13.39       1.51
O       6.45       2.62      15.08
O       2.05       1.39       1.32
O       5.38      14.62      15.28
O       4.28       2.41      16.52
O       0.95      13.60       0.07
O       6.24       5.53      15.66
O       2.90      10.48       0.93
