108

Zn       5.85       7.28       7.98
Zn       8.89       7.33       7.90
H      13.80       7.64       9.91
H       9.48       2.40       5.17
H      10.20       9.27      14.69
H       8.57       9.96      14.61
H       9.14       8.88      13.31
H       4.87       7.96      13.28
H       4.23       6.88      14.53
H       4.01       8.63      14.68
H      10.54       8.76       1.30
H       9.57       8.21       2.68
H      10.14       7.05       1.45
H       0.97       9.28       8.54
H       3.66       8.19       1.00
H       4.37       6.63       0.58
H       4.54       7.28       2.24
H       6.36       4.11       1.08
H       6.56       5.04       2.58
H       5.20       5.36       1.50
H       9.42       5.67       0.55
H       8.79       5.57       2.23
H       8.45       4.29       1.05
H       6.00       0.05       6.10
H       6.26       0.79       9.80
H       6.86      14.17       4.93
H       5.31      13.64       5.58
H       8.78       0.07      10.17
H       7.85      14.16      11.24
H       9.47      13.66      10.75
H       8.77       0.52       6.32
H       5.45       4.06       9.71
H       5.90       2.79      10.88
H       6.98       4.17      10.58
H       8.72       3.99       5.47
H      10.18       3.54       6.35
C       7.69       9.83       7.99
C       8.02      12.05       9.15
C       7.60      11.33       8.03
C       7.46      14.14       8.09
C       6.86       1.28       9.02
C       8.26       1.12       7.07
C       7.03       7.22      10.49
C       6.96       2.67       9.01
C       8.40       2.51       7.03
C       7.74       3.28       8.01
C       7.50       0.49       8.06
C       7.23       6.06       0.80
C      13.27       7.51       8.97
C       1.50       8.37       8.27
C      11.88       7.56       8.94
C       2.89       8.31       8.35
C      11.83       7.16       6.67
C       2.93       6.14       7.57
C      13.23       7.15       6.59
C       1.53       6.08       7.50
C      13.97       7.29       7.78
C       0.80       7.24       7.83
C       7.13       5.65      15.10
C       7.82       4.78       7.95
C       6.91       7.40       5.42
C       6.03       8.06      15.11
C       8.69       7.81      15.13
C       8.47       8.40       0.84
C       5.79       8.30       0.81
C       6.97       7.49       3.98
C       7.30       7.17      14.58
C       7.15       7.61       1.33
C       6.29       3.46      10.10
C       7.10       7.57       2.77
C       9.24       3.14       5.94
C       9.16       9.08      14.39
C       4.70       7.84      14.36
C       9.76       8.05       1.61
C       4.51       7.53       1.17
C       6.25       5.10       1.53
C       8.58       5.37       1.17
C       6.25      14.16       5.84
C       8.56      14.17      10.40
C       7.27       7.17      13.14
C       7.14       7.19      11.93
C       6.94      13.45       6.97
C       8.00      13.45       9.20
C       7.05      12.05       6.95
N      11.16       7.37       7.82
N       3.60       7.23       7.99
Cl       5.44       9.84       1.72
Cl      10.11       6.73      14.66
Cl       5.53       4.94      14.61
Cl       8.20       4.50      14.21
Cl       6.53      11.17       5.55
Cl       8.57      11.15      10.54
Cl       8.37      10.17       1.30
Cl      11.03       7.88      10.39
Cl       3.73       9.67       8.94
Cl      10.90       6.91       5.27
Cl       3.85       4.78       7.12
Cl      14.02       7.01       5.08
Cl       0.73       4.63       7.09
Cl       6.29       9.80      14.66
O       6.59       9.21       8.05
O       8.86       9.33       7.91
O       5.85       7.20      10.00
O       8.13       7.26       9.86
O       6.71       5.39       7.93
O       8.98       5.33       7.91
O       5.76       7.36       5.96
O       8.04       7.37       6.00
