180

Zn       8.82       0.41      10.71
Zn      12.10       1.45      10.46
Zn      13.89       7.84      17.83
Zn      10.61       8.88      18.07
Zn      10.88      14.45       8.32
Zn       7.59      13.41       8.56
Zn       5.80       7.02       1.20
Zn       9.08       5.98       0.95
P      14.07       0.39      13.22
P       8.64       7.82      15.32
P       5.62      14.47       5.81
P      11.06       7.04       3.71
H      11.04      12.29      15.66
H      15.15      11.08      15.77
H      11.21      14.03      10.92
H      11.63      14.24      14.21
H      13.18       3.10      13.02
H      15.06      13.42      11.23
H       3.61      13.20      10.08
H      15.78      13.05      14.35
H      15.08       0.62      16.00
H      13.30       5.05      14.60
H      15.11       2.56      17.58
H       5.17       1.62      12.36
H      16.63       1.85      13.55
H      11.68       4.86      12.87
H       7.57       3.65      12.76
H      11.50       6.60      17.62
H      11.09       6.81      14.33
H       9.53      10.53      15.52
H       7.66       5.99      17.30
H      19.11       5.77      18.46
H       6.94       5.62      14.19
H       7.63       8.05      12.54
H       9.41      12.48      13.93
H       7.61       9.98      10.95
H      17.55       9.05      16.18
H       6.08       9.28      14.98
H       8.66       2.57       3.36
H       4.55       3.78       3.25
H       8.48       0.82       8.11
H       8.07       0.62       4.82
H       6.51      11.75       6.00
H       4.64       1.43       7.79
H      16.09       1.66       8.94
H       3.92       1.81       4.68
H       4.62      14.23       3.03
H       6.39       9.80       4.42
H       4.59      12.30       1.44
H      14.53      13.24       6.66
H       3.06      13.01       5.47
H       8.02       9.99       6.15
H      12.13      11.21       6.26
H       8.19       8.25       1.40
H       8.61       8.04       4.69
H      10.16       4.32       3.51
H      12.04       8.86       1.72
H       0.59       9.08       0.57
H      12.76       9.24       4.84
H      12.06       6.81       6.49
H      10.28       2.38       5.09
H      12.09       4.87       8.07
H       2.15       5.81       2.85
H      13.61       5.58       4.04
C      14.15       1.76      14.40
C      15.71       0.22      12.48
C      13.74      13.77      14.20
C      13.06      11.57      15.79
C      12.67      10.38      16.63
C      12.07      12.47      15.36
C      14.39      11.79      15.43
C       4.51      14.82      11.16
C      12.40      13.55      14.56
C       5.83      14.69      10.45
C      13.64       3.00      14.00
C      15.89      14.08      11.50
C       3.45      13.96      10.85
C      14.74      12.88      14.64
C      14.69       1.59      15.69
C      13.69       4.07      14.89
C      14.71       2.67      16.57
C       4.33       0.96      12.13
C      16.77       1.08      12.79
C      14.21       3.91      16.18
C      14.22       5.07      17.13
C       8.56       9.18      14.14
C       7.00       7.64      16.06
C       8.97       6.34      14.34
C       9.66       4.15      12.74
C      10.04       2.96      11.91
C      10.65       5.04      13.18
C       8.32       4.36      13.11
C      18.21       7.39      17.38
C      10.31       6.13      13.97
C      16.88       7.26      18.09
C       9.07      10.43      14.53
C       6.83       6.65      17.04
C      19.26       6.53      17.69
C       7.98       5.46      13.90
C       8.02       9.02      12.85
C       9.03      11.50      13.65
C       8.00      10.09      11.96
C      18.38       8.38      16.40
C       5.95       8.51      15.74
C       8.50      11.34      12.36
C       8.50      12.50      11.40
C       5.54      13.10       4.63
C       3.99      14.64       6.55
C       5.96       1.09       4.83
C       6.64       3.28       3.23
C       7.02       4.47       2.40
C       7.63       2.39       3.66
C       5.30       3.07       3.60
C      15.19       0.03       7.86
C       7.29       1.30       4.46
C      13.87       0.17       8.57
C       6.05      11.86       5.02
C       3.81       0.78       7.53
C      16.24       0.90       8.18
C       4.96       1.97       4.39
C       5.00      13.26       3.34
C       6.01      10.78       4.14
C       4.98      12.19       2.45
C      15.36      13.90       6.89
C       2.93      13.78       6.23
C       5.48      10.94       2.85
C       5.48       9.78       1.89
C      11.13       5.67       4.89
C      12.69       7.21       2.97
C      10.72       8.52       4.69
C      10.04      10.71       6.28
C       9.65      11.90       7.12
C       9.05       9.82       5.85
C      11.37      10.50       5.91
C       1.49       7.46       1.65
C       9.38       8.73       5.05
C       2.81       7.60       0.94
C      10.62       4.43       4.49
C      12.87       8.20       1.99
C       0.43       8.33       1.34
C      11.72       9.40       5.12
C      11.67       5.83       6.17
C      10.67       3.35       5.38
C      11.70       4.76       7.06
C       1.31       6.47       2.62
C      13.75       6.35       3.28
C      11.19       3.51       6.66
C      11.20       2.35       7.62
O      12.98       0.58      12.19
O      11.43      10.26      16.89
O       5.92      13.73       9.61
O      14.02       6.23      16.62
O      13.62       9.61      16.98
O       6.74       0.67      10.74
O      14.39       4.82      18.36
O      10.86      14.73      10.34
O       9.73       8.01      16.34
O      11.28       2.83      11.64
O      16.80       6.30      18.93
O       8.69      13.66      11.92
O       9.10       2.18      11.56
O      15.98       8.10      17.79
O       8.32      12.25      10.18
O      11.85       7.30      18.20
O       6.71      14.28       6.83
O       8.26       4.59       2.13
O      13.78       1.13       9.42
O       5.67       8.62       2.41
O       6.08       5.25       2.04
O      12.96      14.18       8.28
O       5.30      10.04       0.67
O       8.83       0.12       8.68
O       9.96       6.85       2.68
O       8.41      12.02       7.38
O       2.90       8.55       0.09
O      11.00       1.20       7.11
O      10.60      12.67       7.47
O       3.72       6.76       1.23
O      11.37       2.61       8.85
O       7.84       7.55       0.83
