95

Zn       6.49       5.52      11.10
Zn       3.77       5.64      11.04
Zn       3.55       5.51       0.08
Zn       6.77       5.60      22.07
H       1.66       3.75      10.26
H       8.58       7.46      11.85
H       3.04       9.72      11.02
H       7.04       1.44      11.10
H       3.13       5.37      17.90
H       8.34       6.61      17.76
H       8.45       4.83      17.75
H       8.35       4.84      15.23
H       8.23       6.62      15.24
H       7.30       5.51       4.25
H       3.09       5.55       6.86
H       8.37       3.75       0.97
H       1.95       7.33      21.20
H       6.94       9.67       0.08
H       3.26       1.44      22.09
H       2.34       6.18      14.72
H       2.57       4.45      14.59
H       1.85       5.12      16.07
C       5.22       8.19      11.04
C       5.22       5.57      13.66
C       4.87       2.97      11.09
C       5.20       5.53       8.48
C       4.74       8.16       0.06
C       5.29       5.57      19.52
C       4.97       2.93       0.03
C       5.16       5.54       2.63
C       9.36       4.54      10.58
C       0.89       6.67      11.52
C       1.04       4.58      10.60
C       9.21       6.63      11.51
C       4.89       1.47      11.10
C       5.19       9.69      11.08
C       3.76       0.64      11.08
C       6.32      10.51      11.11
C       3.94      10.33      11.06
C       6.14       0.83      11.11
C       5.27       5.54      18.03
C       5.17       5.53      15.15
C       6.42       5.60      17.26
C       3.97       5.43      15.92
C       6.37       5.60      15.87
C       4.06       5.44      17.32
C       7.94       5.70      17.30
C       7.88       5.70      15.72
C       5.23       5.52       6.98
C       5.15       5.54       4.13
C       6.41       5.51       6.20
C       3.98       5.55       4.90
C       6.37       5.52       4.82
C       4.01       5.54       6.29
C       0.68       4.54       0.66
C       9.64       6.54      21.50
C       9.00       4.54       0.56
C       1.32       6.53      21.60
C       4.93       1.43       0.05
C       4.79       9.66       0.05
C       6.06       0.60       0.07
C       3.66      10.49       0.02
C       6.04      10.29       0.07
C       3.68       0.80       0.02
C       2.61       5.29      15.29
N       8.60       5.53      11.03
N       1.65       5.68      11.08
N       1.44       5.50       0.14
N       8.88       5.58      22.02
O       6.31       7.59      11.32
O       4.12       7.63      10.73
O       4.14       5.83      13.03
O       6.35       5.35      13.12
O       3.76       3.57      11.24
O       6.00       3.53      10.93
O       6.29       5.74       9.09
O       4.06       5.33       9.02
O       3.62       7.58       0.18
O       6.35       7.60      22.04
O       6.43       5.44      20.08
O       4.18       5.72      20.14
O       6.08       3.52       0.19
O       4.32       3.52      21.94
O       4.04       5.39       2.04
O       6.29       5.67       2.06
F       8.74       3.46      10.10
F       1.51       7.75      12.01
F       2.51       1.18      11.05
F       7.58       9.98      11.11
F       7.63       5.47       6.79
F       2.75       5.58       4.33
F       1.29       3.54       1.30
F       9.03       7.53      20.86
F       7.31       1.13       0.09
F       2.88       9.99      22.08
