171

Cu      19.30      19.43      21.71
Cu      21.56      19.44      19.48
Cu      19.30      21.69      19.47
Cu      19.34       5.36       3.15
Cu      21.58       5.38       5.41
Cu      19.33       3.12       5.40
Cu       5.37      19.39       3.21
Cu       3.10      19.40       5.44
Cu       5.37      21.65       5.44
Cu       5.32       5.44      21.71
Cu       3.07       5.45      19.47
Cu       5.32       3.19      19.49
H      20.18      16.91      23.43
H      23.30      16.93      20.42
H      16.78      23.41      20.39
H      16.79      20.33      23.44
H      23.28      20.34      16.96
H      20.20      23.39      16.95
H      20.24       7.87       1.42
H      23.30       7.91       4.50
H      16.81       1.40       4.49
H      16.83       4.47       1.42
H      23.28       4.49       7.95
H      20.21       1.42       7.94
H       4.49      16.86       1.50
H       1.37      16.89       4.51
H       7.87      23.39       4.52
H       7.89      20.29       1.48
H       1.40      20.30       7.98
H       4.49      23.35       7.98
H       4.44       7.96      23.44
H       1.36       7.99      20.39
H       7.83       1.44      20.42
H       7.85       4.56      23.44
H       1.36       4.54      16.95
H       4.43       1.47      16.97
C      20.83      17.11      22.59
C      21.99      16.43      22.19
C      22.43      17.12      21.04
C      16.97      22.56      21.02
C      16.30      22.13      22.18
C      16.98      20.98      22.59
C      22.43      20.98      17.16
C      22.00      22.12      16.46
C      20.84      22.54      17.15
C      20.88       7.69       2.28
C      22.02       8.38       2.70
C      22.45       7.70       3.86
C      17.01       2.25       3.85
C      16.32       2.68       2.70
C      17.02       3.82       2.27
C      22.43       3.85       7.75
C      22.00       2.70       8.44
C      20.85       2.27       7.74
C       3.84      17.06       2.34
C       2.67      16.39       2.74
C       2.23      17.08       3.89
C       7.68      22.53       3.88
C       8.37      22.10       2.74
C       7.69      20.94       2.33
C       2.25      20.94       7.78
C       2.69      22.08       8.47
C       3.84      22.50       7.78
C       3.80       7.77      22.59
C       2.65       8.46      22.17
C       2.21       7.78      21.02
C       7.64       2.31      21.04
C       8.33       2.74      22.19
C       7.65       3.90      22.59
C       2.21       3.90      17.15
C       2.64       2.75      16.46
C       3.79       2.33      17.16
C      -0.01       0.03      12.46
C      24.68      12.40       0.02
C      12.31       0.01       0.02
C      22.63      15.31      22.84
C      23.82      13.40      24.06
C      22.65       9.52       2.06
C      23.84      11.44       0.86
C       2.04      15.26       2.10
C       0.85      13.35       0.87
C       2.03       9.60      22.82
C       0.85      11.50      24.05
C      15.17      22.77      22.83
C      13.28      23.97      24.06
C       9.45       2.10      22.84
C      11.35       0.90      24.06
C      15.19       2.05       2.06
C      13.27       0.85       0.86
C       9.49      22.73       2.09
C      11.40      23.93       0.87
C      22.64      22.76      15.33
C      23.84      23.95      13.42
C       2.07      22.72       9.61
C       0.88      23.94      11.52
C       2.01       2.11      15.33
C       0.83       0.88      13.42
C      22.63       2.07       9.57
C      23.82       0.87      11.50
N      21.59      18.13      20.79
N      20.60      18.12      21.75
N      17.99      20.74      21.74
N      17.99      21.72      20.77
N      20.60      21.71      18.17
N      21.58      20.73      18.17
N      21.61       6.68       4.10
N      20.64       6.67       3.12
N      18.03       4.06       3.12
N      18.03       3.09       4.10
N      20.62       3.11       6.72
N      21.60       4.08       6.72
N       3.08      18.09       4.14
N       4.07      18.08       3.18
N       6.67      20.69       3.17
N       6.67      21.68       4.14
N       4.07      21.67       6.76
N       3.09      20.70       6.76
N       3.04       6.76      20.77
N       4.03       6.75      21.74
N       6.63       4.14      21.75
N       6.63       3.15      20.79
N       4.02       3.17      18.18
N       3.04       4.14      18.17
N      22.03      14.80      23.95
N      23.79      14.85      22.31
N      24.41      13.88      22.95
N      22.66      13.83      24.58
N      22.09       9.99       0.92
N      23.78      10.02       2.64
N      24.38      11.01       2.01
N      22.71      10.97       0.30
N       2.63      14.77       0.98
N       0.89      14.79       2.64
N       0.28      13.81       2.00
N       2.01      13.79       0.35
N       0.90      10.11      22.26
N       2.60      10.06      23.96
N       1.98      11.03      24.60
N       0.30      11.08      22.90
N      14.71      22.20      23.97
N      14.68      23.90      22.26
N      13.71      24.52      22.91
N      13.74      22.83      24.61
N       9.94       2.69      23.96
N       9.91       0.94      22.30
N      10.88       0.33      22.94
N      10.92       2.06      24.59
N      14.69       0.92       2.63
N      14.72       2.60       0.91
N      13.74       1.98       0.30
N      13.71       0.31       2.01
N       9.97      23.88       2.64
N       9.98      22.16       0.96
N      10.95      22.78       0.33
N      10.94      24.50       2.00
N      22.06      23.88      14.84
N      23.78      22.19      14.86
N      24.40      22.82      13.88
N      22.70      24.50      13.86
N       0.94      22.16      10.11
N       2.65      23.84      10.10
N       2.03      24.47      11.08
N       0.32      22.79      11.08
N       0.88       2.67      14.83
N       2.59       0.97      14.86
N       1.97       0.34      13.88
N       0.27       2.03      13.85
N      23.76       2.63      10.06
N      22.05       0.94      10.06
N      22.68       0.32      11.05
N      24.37       2.01      11.05
