108

Zn       5.22       7.81       0.13
Zn       3.51       4.16       0.29
Zn      -3.50       2.90      10.60
Zn       5.98       5.16       1.98
H       3.74       9.70       2.15
H       2.13       5.31       8.32
H      -7.20       9.10       8.46
H      -4.88       8.91       6.15
H       2.15       3.71       5.61
H      -0.71      -2.29       8.00
H       0.66       3.34       7.38
H       5.69       3.89       7.44
H      10.46      -1.15       4.23
H      -0.47       6.06       4.31
H       4.58      10.68       4.48
H       0.36       7.54       4.81
H       8.59      -0.75       6.46
H      -0.60       7.43       6.95
H      -2.91       0.11       6.13
H      -1.61       6.11       6.35
H      -4.73      10.33       5.12
H       0.73       3.78       4.57
H       0.90       5.06       2.25
H       5.89      10.04       2.28
H      -0.71      -0.87       6.96
H      -0.73       3.77       6.40
H       4.45       1.25      11.28
H       4.40       8.65       5.91
H       2.89      11.94       1.95
H      -6.29       1.77      11.07
H      -5.68       4.40      12.16
H       7.01       6.66       4.73
H       4.40       6.27       4.49
H       2.50       7.34       6.21
H       1.01       2.98      10.01
H       3.97       1.04       0.30
H      -2.62      -2.21      10.43
H       0.83       5.56      10.42
H      -2.58       4.34       8.05
H      -3.05       1.38       8.06
H       7.24       2.00       2.97
H       8.53       4.26       0.30
H       5.83       7.83       6.53
H       3.29       5.78       6.39
H       4.27       9.80       7.93
H       1.47       6.95       8.27
C       3.02       9.27       1.47
C       5.73       0.89       1.70
C       2.34       1.48      11.06
C      -2.80      -0.77       8.71
C      -0.58       5.18       8.70
C       5.40       8.82       6.33
C       2.31       6.27       6.36
C       6.18       3.44       8.30
C      -7.69       9.64       7.64
C       1.56       6.02       7.69
C      -5.36       9.86       5.88
C       1.19       4.23       5.46
C       5.55      10.89       4.96
C       0.16       6.49       5.11
C       6.26       9.56       5.27
C       1.50       5.72       5.17
C      -2.69      -1.60       7.46
C       0.16       5.46       7.43
C      -1.20      -1.84       7.12
C       0.28       4.10       6.69
C       1.89       5.31       2.62
C       6.14       9.07       2.70
C      -3.35      -0.89       6.25
C       6.38       1.99       2.30
C      -0.57       6.43       6.48
C       3.70       1.61      10.58
C       6.14      -0.49       1.72
C       4.20       2.25       9.50
C       1.13      11.01       1.39
C       1.96       0.72      12.19
C      -6.33       2.36      10.16
C       1.26       8.72       0.25
C       6.73       7.36       3.94
C       3.67       5.93       3.76
C       1.72       9.71       1.14
C       5.59       2.62       9.30
C       2.29       5.75       3.89
C       6.39       8.72       4.03
C       1.18       2.24      10.79
C       4.70       1.50       0.95
C      -2.73      -1.20      10.03
C      -0.11       5.19      10.02
C      -1.83       4.55       8.81
C      -2.94       0.63       8.83
N       3.31       8.14       0.79
N       2.22       7.80       0.04
N      -5.23       2.97       9.69
N       6.65       6.93       2.66
N       4.07       5.58       2.52
N       0.22       1.99      11.71
N       4.75       2.83       1.10
N      -5.52       3.65       8.53
N      -2.83      -0.14      10.87
N      -1.01       4.59      10.85
N      -2.07       4.19      10.08
N      -2.95       1.00      10.12
N       5.77       3.15       1.96
N       6.69       5.30       0.12
N       2.97       5.21       1.81
N       6.27       8.00       1.88
Cl       3.13       2.79       8.23
Cl      -0.58      11.10       1.03
