180

Cu      13.40      21.31      23.77
Cu      12.10      22.60      21.18
Cu      14.70      23.91      22.49
Cu      22.35      32.78       5.77
Cu      23.62      31.52       3.15
Cu      21.02      30.22       4.46
Cu      31.23      14.76      30.29
Cu      29.92      13.48      32.88
Cu      32.53      12.16      31.57
Cu       4.43       3.22      12.30
Cu       5.77       4.53      14.88
Cu       3.16       5.84      13.56
H      11.45      18.86      24.26
H       9.65      20.58      20.71
H      17.14      24.38      24.49
H      15.35      20.83      26.22
H      11.64      24.58      18.74
H      15.17      26.36      20.52
H      24.31      35.22       6.26
H      26.05      33.53       2.67
H      18.55      29.78       6.45
H      20.41      33.27       8.23
H      24.08      29.56       0.70
H      20.54      27.78       2.47
H      29.28      17.22      29.80
H      27.47      15.49      33.34
H      34.98      11.69      29.56
H      33.19      15.25      27.84
H      29.45      11.50      35.32
H      32.98       9.71      33.54
H       6.38       0.77      11.83
H       8.23       2.55      15.32
H       0.72       6.31      11.54
H       2.47       2.72       9.86
H       6.24       6.52      17.31
H       2.70       8.29      15.54
H      29.47       4.47       2.74
H      32.98       6.26       4.52
H      31.22       2.72       6.27
H       6.24      13.55      20.77
H       2.73      11.76      22.55
H       4.48      15.30      24.30
H      11.66      31.59      15.28
H      15.17      29.81      13.49
H      13.41      33.34      11.74
H      22.31      20.78      29.76
H      20.57      24.33      31.50
H      24.07      22.54      33.30
C      11.18      19.45      23.39
C      10.11      19.27      22.49
C      10.26      20.34      21.58
C      16.54      23.52      24.74
C      16.69      22.60      25.80
C      15.62      21.70      25.62
C      12.50      24.84      19.34
C      13.40      25.91      19.19
C      14.31      25.75      20.26
C      24.57      34.63       5.39
C      25.62      34.82       4.47
C      25.46      33.77       3.54
C      19.18      30.62       6.71
C      19.04      31.53       7.78
C      20.13      32.41       7.62
C      23.22      29.30       1.30
C      22.31      28.23       1.14
C      21.40      28.39       2.21
C      29.01      16.63      30.67
C      27.94      16.80      31.57
C      28.08      15.74      32.48
C      34.37      12.56      29.32
C      34.52      13.48      28.26
C      33.46      14.38      28.43
C      30.31      11.23      34.71
C      31.21      10.16      34.87
C      32.12      10.32      33.80
C       6.66       1.38      12.68
C       7.74       1.22      13.57
C       7.60       2.29      14.47
C       1.31       5.44      11.31
C       1.15       4.51      10.26
C       2.21       3.60      10.45
C       5.38       6.78      16.71
C       4.48       7.85      16.87
C       3.57       7.68      15.80
C      30.23       3.48       4.50
C      30.24       4.48       3.51
C      31.23       5.48       3.51
C      32.21       5.48       4.52
C      32.22       4.49       5.52
C      31.22       3.49       5.50
C       5.47      14.54      22.53
C       5.47      13.54      21.54
C       4.49      12.53      21.54
C       3.50      12.53      22.55
C       3.49      13.53      23.54
C       4.48      14.53      23.53
C      12.42      32.58      13.51
C      12.43      31.59      14.50
C      13.42      30.58      14.50
C      14.40      30.58      13.50
C      14.40      31.58      12.50
C      13.41      32.57      12.51
C      23.31      21.54      31.53
C      22.32      21.55      30.53
C      21.33      22.56      30.52
C      21.33      23.55      31.51
C      22.32      23.55      32.52
C      23.30      22.54      32.52
C      26.60      35.82       4.47
C      27.44       0.64       4.48
C      28.38       1.60       4.49
C      29.24       2.47       4.50
C       9.13      18.27      22.50
C       8.27      17.39      22.51
C       7.33      16.43      22.52
C       6.47      15.55      22.53
C       8.73       0.23      13.55
C       9.61      35.42      13.54
C      10.56      34.46      13.53
C      11.43      33.59      13.52
C      26.96      17.81      31.56
C      26.10      18.69      31.55
C      25.16      19.65      31.54
C      24.30      20.53      31.54
C       0.17       4.50       9.25
C      35.01       4.50       8.37
C      34.07       4.49       7.41
C      33.21       4.49       6.53
C      17.67      22.59      26.80
C      18.53      22.58      27.67
C      19.47      22.57      28.64
C      20.33      22.56      29.51
C      35.51      13.49      27.26
C       0.68      13.50      26.38
C       1.63      13.51      25.42
C       2.49      13.52      24.55
C      18.06      31.55       8.78
C      17.20      31.56       9.66
C      16.26      31.57      10.62
C      15.40      31.57      11.49
C      31.21       9.17      35.86
C      31.21       8.30       0.68
C      31.22       7.34       1.64
C      31.22       6.48       2.51
C      13.40      26.90      18.20
C      13.41      27.77      17.33
C      13.41      28.72      16.37
C      13.42      29.59      15.50
C      22.30      27.24       0.15
C      22.31      26.38      35.33
C      22.31      25.42      34.38
C      22.32      24.55      33.51
C       4.48       8.84      17.85
C       4.48       9.71      18.72
C       4.49      10.66      19.68
C       4.49      11.53      20.54
N      11.33      21.08      21.91
N      11.90      20.53      23.04
N      14.90      22.05      24.55
N      15.47      23.18      24.00
N      13.96      24.67      20.98
N      12.84      24.11      20.42
N      24.40      33.02       3.89
N      23.85      33.56       5.03
N      20.85      32.06       6.54
N      20.26      30.95       5.98
N      21.75      29.46       2.95
N      22.88      30.02       2.38
N      29.15      14.99      32.15
N      29.73      15.55      31.02
N      32.73      14.03      29.51
N      33.30      12.90      30.06
N      31.78      11.40      33.07
N      30.66      11.97      33.64
N       6.52       3.02      14.14
N       5.94       2.46      13.03
N       2.93       3.95      11.52
N       2.38       5.10      12.06
N       3.91       6.61      15.07
N       5.03       6.05      15.63
