97

Ni      10.78      11.54       9.18
Ni       3.02       1.89       5.42
Ni       2.47       6.72       7.30
P       9.33       9.20       7.85
P       3.26       9.89       6.85
P       4.46       4.23       6.75
P      10.53       3.54       7.75
H      10.48      10.96       4.68
H      10.21       9.21       4.80
H       6.30       1.95       5.60
H       5.46       9.49       4.08
H       8.03       8.40       4.14
H       7.30       9.12       7.02
H       8.98       1.83       6.75
H       9.11       5.54       5.77
H       8.26       5.65       3.40
H       3.13       7.59       2.34
H       3.81       7.38       4.74
H       8.65       6.19       1.07
H       1.86       8.45       0.68
H      13.28      12.91      13.40
H      10.46       2.74      11.10
H      10.74       9.35      11.15
H      11.58       8.93      13.47
H       3.31       2.47       9.92
H       3.58       4.22       9.80
H       7.49      11.48       9.00
H       8.34       3.94      10.52
H       5.76       5.03      10.46
H       6.50       4.31       7.57
H       4.81      11.60       7.85
H       4.68       7.89       8.83
H       5.54       7.78      11.20
H      10.66       5.84      12.26
H       9.98       6.06       9.85
H       5.14       7.24      13.53
H      11.93       4.98      13.92
H       0.51       0.52       1.20
H       3.33      10.69       3.49
H       3.05       4.08       3.45
H       2.21       4.50       1.13
C      10.28      10.28       6.68
C       9.91      10.19       5.20
C       7.74      11.47       5.14
C       6.40       9.94       4.37
C       7.66       9.38       4.41
C       9.69       5.99       4.96
C       9.24       6.06       3.65
C      10.02       6.69       2.67
C       2.45       7.15       3.06
C       2.84       7.02       4.38
C       9.50       6.83       1.32
C       9.93       7.73       0.40
C      12.50      10.90      13.66
C      12.71      12.09      12.95
C      12.18      12.25      11.68
C      11.30      10.11      11.71
C      11.76       9.90      13.00
C       3.52       3.15       7.92
C       3.88       3.24       9.40
C       6.05       1.96       9.45
C       7.39       3.49      10.23
C       6.14       4.05      10.19
C       4.10       7.44       9.64
C       4.56       7.37      10.95
C       3.77       6.74      11.93
C      11.35       6.28      11.54
C      10.95       6.41      10.21
C       4.29       6.60      13.28
C       3.87       5.70      14.20
C       1.29       2.53       0.94
C       1.08       1.34       1.65
C       1.61       1.18       2.92
C       2.50       3.32       2.89
C       2.03       3.53       1.60
N       8.49      10.36       4.90
N       6.47      11.23       4.83
N      10.89       6.48       5.33
N      11.50      11.27      11.05
N       5.30       3.07       9.70
N       7.32       2.20       9.77
N       2.90       6.95       9.27
N       2.30       2.16       3.55
O       9.49       7.75       7.46
O       9.77       9.70       9.22
O       7.76       9.59       7.75
O       3.52       8.40       6.85
O       3.64      10.61       8.18
O       3.89      10.55       5.61
O      10.09      11.63       7.15
O       4.31       5.68       7.14
O       4.03       3.74       5.38
O       6.03       3.84       6.85
O      10.28       5.04       7.75
O      10.15       2.82       6.42
O       9.91       2.88       8.99
O       3.71       1.80       7.45
