186

Zn       9.82      18.61      18.76
Zn      17.76      10.90       1.01
Zn      17.83       7.71       1.00
Zn      24.39      18.53      18.63
Zn       7.29      18.64       0.98
Zn      17.11      10.84      18.67
Zn      17.02      26.28      18.67
Zn      10.55      18.57       1.01
H      11.00      14.05      18.14
H      10.34      13.42      19.66
H      11.91      11.69      19.60
H      12.56      12.34      18.09
H       4.63       3.21       1.91
H       5.94       4.39       1.99
H       3.08       4.95       1.97
H       4.40       6.13       2.01
H      12.88      15.76      18.20
H      13.52      16.32      19.74
H      15.09      14.59      19.71
H      14.45      14.04      18.16
H      23.29      23.28      18.03
H      23.88      23.78      19.63
H      22.30      25.51      19.64
H      21.72      24.98      18.05
H      13.14      15.29       1.84
H      11.83      14.11       1.76
H      14.69      13.54       1.82
H      13.38      12.37       1.71
H      21.43      21.57      17.87
H      20.72      20.88      19.32
H      19.14      22.60      19.37
H      19.84      23.27      17.91
H      10.58      23.45      18.65
H      11.74      22.39      17.84
H      13.28      24.14      17.80
H      12.12      25.19      18.63
H      14.89      22.73      19.12
H       6.70      13.52       0.99
H      13.33      20.98      19.19
H       5.15      11.80       1.05
H       2.36      14.29       1.29
H       3.47      13.31       2.24
H       5.04      15.04       2.19
H       3.92      16.02       1.26
H      23.63      13.58      18.50
H      22.47      14.58      17.62
H      20.95      12.81      17.65
H      22.10      11.83      18.57
H      19.33      14.32      18.84
H      11.10       5.11       0.70
H      20.87      16.07      18.85
H      12.67       6.82       0.71
H      15.44       4.33       1.15
H      14.32       5.37       2.02
H      12.73       3.67       2.04
H      13.86       2.61       1.21
H      11.15      18.57       4.22
H       6.64      18.64       4.06
H       6.47      18.58       8.64
H      11.00      18.57       8.80
H      10.83      18.59      11.10
H       6.30      18.59      10.86
H      23.89      18.58      15.43
H      10.58      18.57      15.67
H      17.16      25.61      15.53
H      17.06      11.51      15.54
H      17.63      11.54      11.00
H      17.69       7.01      10.98
H      17.39       7.02       8.71
H      17.39      11.54       8.72
H      17.61      11.55       4.15
H      17.66       7.04       4.14
C       2.56      11.85       0.06
C      17.65       9.30       3.55
C       2.60       6.79       0.02
C      23.46      15.97      19.73
C       8.29      18.57      16.15
C      23.45      21.13      19.70
C      14.59      11.89      19.84
C      17.05       9.25      16.12
C      14.52      25.30      19.87
C      19.60      25.28      19.75
C       8.91      18.61       3.55
C      19.65      11.79      19.77
C       8.87      18.60       5.01
C      10.08      18.58       5.77
C      10.02      18.58       7.16
C       8.76      18.59       7.82
C       7.56      18.60       7.07
C       7.60      18.61       5.68
C       8.70      18.58       9.23
C       8.60      18.58      10.46
C       8.52      18.58      11.87
C       9.71      18.58      12.64
C       9.64      18.57      14.04
C       8.37      18.57      14.69
C       7.17      18.58      13.90
C       7.25      18.58      12.51
C      17.16       9.26      14.66
C      17.25       8.02      13.95
C      17.38       8.04      12.56
C      17.41       9.27      11.87
C      17.35      10.50      12.57
C      17.22      10.50      13.96
C      17.49       9.28      10.46
C      17.52       9.28       9.23
C      17.55       9.29       7.82
C      17.56       8.06       7.12
C      17.61       8.05       5.72
C      17.62       9.29       5.01
C      17.59      10.53       5.73
C      17.55      10.52       7.12
C      11.26      13.75      19.16
C      12.31      12.60      19.13
C      13.59      13.04      19.87
C       5.03       4.11       1.43
C       4.00       5.26       1.46
C       3.66       5.71       0.02
C      13.12      15.43      19.21
C      14.16      14.29      19.19
C      22.98      23.50      19.06
C      21.93      24.64      19.08
C      20.62      24.14      19.73
C      12.76      14.43       1.27
C      13.79      13.28       1.25
C      22.38      22.22      19.70
C      21.14      21.81      18.90
C      20.09      22.94      18.93
C      11.60      23.06      18.70
C      12.63      24.22      18.68
C       5.33      14.91       0.05
C       6.06      13.55       0.10
C       5.02      12.40       0.14
C       3.59      12.97       0.10
C       3.39      13.90       1.31
C       4.42      15.05       1.28
C      22.60      13.97      18.52
C      21.58      12.80      18.55
C      20.67      12.92      19.80
C      19.95      14.28      19.74
C      20.99      15.44      19.74
C      22.42      14.86      19.77
C      14.42       4.73       1.13
C      13.37       3.60       1.15
O       8.15      18.57      19.78
O      10.91      20.20      19.09
O      17.63      10.43       2.93
O       1.61       6.63       0.82
O       1.59      11.92       0.89
O      10.92      17.02      19.11
O      17.70       8.17       2.93
O      16.27       6.60       0.62
O       7.13      18.57      16.71
O      23.28      16.92      18.89
O       9.39      18.57      16.82
O      16.27      12.06       0.57
O      23.28      20.12      18.94
O      17.08       9.26      19.81
O       6.15       1.61       0.66
O      16.97      10.38      16.74
O      15.43      25.18      18.98
O      15.60      12.01      19.07
O       6.22      17.02       0.77
O      17.03       8.12      16.74
O      18.61      25.19      18.96
O      10.06      18.56       2.95
O      11.65      16.99       0.65
O       7.80      18.66       2.90
O      18.76      11.86      18.84
O      11.56       1.61       0.74
O      11.31      18.58       5.20
O       6.42      18.62       5.03
O       6.33      18.60       7.67
O      11.20      18.57       7.85
O      10.95      18.58      12.07
O       6.08      18.59      11.80
O      23.76      18.58      14.45
O      10.82      18.57      14.71
O      17.22       6.81      14.56
O      17.15      11.71      14.57
O      17.42      11.71      11.93
O      17.47       6.84      11.92
O      17.53       6.85       7.76
O      17.52      11.72       7.77
O      17.60      11.74       5.12
O      17.63       6.84       5.11
