79

Al       0.07      -5.89      10.21
H       2.24      19.42       6.55
H       2.29      19.46       4.09
H       2.29      19.51       2.16
H       2.32       7.69      20.14
H      -0.25      15.29      13.58
H      -0.19      13.17      14.82
H       0.21      11.61      15.95
H       0.23       9.49      17.14
H       1.17       8.00      18.26
H       2.26      13.60      10.53
H       2.31      11.46      11.73
H       2.02       9.69      12.53
H       2.15       7.61      13.77
H       0.74      -1.88      10.51
H       0.61       0.26      11.70
H       0.65       1.98      12.57
H       0.41       4.05      13.81
H       1.34       5.85      14.54
H       3.24      -3.49      13.61
H       3.07      -1.38      14.85
H       2.71       0.22      15.93
H       2.54       2.32      17.13
H      -0.21      15.89       6.46
H      -0.10      15.86       4.01
H       0.05      15.82       2.08
H       0.04       4.04      20.06
H       1.32       3.72      18.26
C       0.98      17.65       8.15
C       2.05      -4.11      11.24
C       0.98      15.87      11.23
C       1.71      18.66       5.98
C       1.73      18.67       4.59
C       1.80      18.69       1.63
C       1.85      18.69       0.24
C       0.32      14.44      13.19
C       0.37      13.24      13.89
C       0.63      10.74      15.45
C       0.66       9.53      16.14
C       1.01      17.65       6.66
C       1.10      17.66       3.83
C       1.16      17.66       2.35
C       1.18       5.87      19.90
C       1.23       5.86      18.42
C       1.22       7.07      17.71
C       1.71      13.48      11.46
C       1.73      12.28      12.15
C       1.63       9.67      13.55
C       1.69       8.47      14.25
C       1.27      -1.75      11.45
C       1.20      -0.54      12.14
C       1.08       2.03      13.57
C       0.95       3.22      14.27
C       1.00      14.58      11.98
C       1.07      12.13      13.39
C       1.11      10.84      14.13
C       1.20       8.37      15.56
C       1.24       7.09      16.30
C       1.31       5.86      15.63
C       2.65      -2.67      13.21
C       2.55      -1.47      13.90
C       2.20       1.05      15.45
C       2.09       2.24      16.14
C       0.36      16.66       5.93
C       0.42      16.65       4.54
C       0.58      16.63       1.59
C       0.62      16.63       0.20
C       1.99      -2.82      11.98
C       1.82      -0.37      13.39
C       1.70       0.90      14.14
C       1.46       3.36      15.58
C       1.35       4.64      16.31
C       1.30       4.66      17.71
O       0.04      16.69      11.50
O       0.04      17.01       8.73
O       1.13      -4.32      10.37
O       1.91      16.07      10.38
O       2.99      -4.93      11.51
O       1.91      18.29       8.75
