50

Zn       5.32       8.79       8.02
Zn       5.32       6.01       8.02
H       9.62       5.65       7.75
H       1.01       5.65       8.28
H       5.04       9.68      14.78
H       5.80       9.62       1.22
H       5.59       5.32       1.26
H       4.85       5.38      14.82
H       3.92       1.23       9.69
H       6.70       1.23       6.35
C       4.84       7.43      10.56
C       5.31       2.78       8.02
C       2.78       7.41       7.54
C       7.85       7.41       8.50
C      10.16       6.56       8.07
C       0.48       6.55       7.96
C       9.35       7.51       8.59
C       1.28       7.51       7.45
C       5.69       8.68       0.68
C       5.05       8.75      15.34
C       5.71       7.47       1.40
C       5.80       7.42       5.48
C       4.92       7.53      14.64
C       5.58       6.25       0.70
C       4.95       6.32      15.36
C       5.82       7.47       2.82
C       4.81       7.51      13.22
C       4.76       7.47      12.01
C       5.87       7.44       4.03
C       4.54      14.12       8.96
C       6.11      14.13       7.08
C       5.32      13.42       8.02
C       6.10       0.68       7.08
C       4.53       0.68       8.96
C       5.31       1.36       8.02
C       5.32      12.00       8.01
N       5.32       3.94       8.03
N       5.32      10.84       8.01
Cl       9.96       8.93       9.36
Cl       0.67       8.93       6.68
Cl       3.59      13.26      10.09
Cl       7.05      13.27       5.94
O       4.63       8.53       9.95
O       6.00       8.51       6.08
O       5.13       6.30      10.04
O       5.50       6.29       6.00
O       3.44       8.47       7.33
O       7.20       8.48       8.71
O       3.26       6.27       7.85
O       7.37       6.27       8.20
