48

Zn       9.63       8.95       8.54
Zn       9.08       6.49       6.67
Zn       7.08       9.18       6.74
Zn       7.00       6.99       9.02
H       5.44       5.94       0.41
H      13.50       5.81       7.29
H       2.77       9.60       8.05
H       9.07       2.30       7.07
H       7.09      13.47       7.70
H       6.35       2.56       8.51
H      10.10      13.23       7.07
H      13.77       8.75       8.20
H       2.64       6.51       7.97
H       8.69       8.28       0.01
C       7.59       4.30       8.00
C       2.26       7.54       8.02
C      13.22       6.82       7.60
C       8.82      11.47       7.29
C      14.13       7.75       7.96
C      11.78       7.15       7.55
C       4.59       8.40       8.04
C       7.74       7.65       4.27
C       8.47       8.37      11.20
C       7.51       7.49       2.85
C       7.14       7.17       0.26
C       8.76       8.72      13.81
C       8.92       8.89      15.19
C       7.31       7.33       1.66
C       8.61       8.56      12.61
C       9.06      12.92       7.22
C       8.10      13.83       7.47
C       7.28       2.85       8.01
C       8.13       1.94       7.49
C       3.13       8.57       8.08
O       8.19       7.89       7.72
O       8.57       6.83       4.78
O       7.55       7.57      10.81
O       7.09       8.58       4.84
O       9.29       9.02      10.46
O      10.84      10.27      14.92
O      11.40       8.20       8.18
O       5.10       7.38       8.63
O       8.48       4.70       7.17
O       7.67      11.04       6.92
O       6.95       5.03       8.83
O       9.78      10.75       7.74
O      11.03       6.36       6.88
O       5.23       9.30       7.40
