202

Al      14.79       6.91      13.54
Al       3.26       4.35      13.58
Al       4.55       7.04      13.68
Al      11.34       1.14      26.88
Al       8.14       1.18      26.90
Al       9.56       3.82      26.83
H       5.02       2.41       5.90
H       6.81       1.80       8.04
H       9.00       2.67       6.44
H      18.47      11.77       6.25
H       9.80       0.89       8.10
H      14.46       9.27       7.59
H      14.48      11.79       6.28
H      12.39       6.13       5.92
H      11.39       4.32       7.87
H      15.01       5.66       6.90
H      14.29       1.72       6.98
H      11.66       2.20       6.00
H       6.98       1.45      23.18
H       6.73       0.52      20.88
H       6.39       0.85      18.47
H       7.45       5.69      23.74
H       7.26       7.25      21.77
H       6.92       7.58      19.36
H       6.27       6.66      17.13
H      18.27      10.54      23.81
H       5.11       8.94      17.22
H       6.28       9.57      19.35
H      13.99      10.65      23.60
H      12.80      10.05      21.46
H      14.26       8.97      17.02
H      10.20       4.71      22.85
H      12.28       5.34      16.42
H       9.76       5.45      20.50
H      10.50       5.64      18.15
H      13.74       2.44      23.77
H       2.83       2.35      19.68
H       2.43       3.17      17.37
H      15.36       8.50       4.00
H      14.49       7.78       5.39
H      15.62       6.77       4.42
H       4.97       0.44      15.98
H       3.92       1.90      15.89
H       4.42       1.24      17.49
H       7.82      11.13      22.80
H      19.66      11.89      22.66
H       7.25      11.71      21.20
H      12.78       7.64      18.26
H      11.21       8.48      18.07
H      11.75       7.94      19.70
H       7.35       7.52       6.43
H       5.66       7.45       5.80
H       7.00       8.01       4.74
H       4.11       2.10      21.59
H       3.22       0.61      21.12
H       3.73       0.85      22.83
H       5.76       9.91       9.39
H       6.57      10.60       7.93
H       7.02       8.96       8.53
H      12.50       7.23      13.95
H       0.27       0.07       0.32
C      14.77       4.58      11.62
C       5.34       5.06      11.73
C      16.62       8.70      11.96
C      14.64       4.54      15.41
C       5.42       4.91      15.37
C      16.45       8.31      15.64
C       6.83       2.70       7.42
C       5.84       3.04       6.26
C       7.46       3.17       2.79
C       5.97       4.77      10.48
C       8.04       3.19       6.56
C       7.05       3.52       5.37
C       7.87       4.64       7.12
C       6.66       4.15       8.02
C       6.89       4.99       5.92
C       5.67       4.49       6.81
C       7.27       3.28       3.99
C       6.36       4.49       9.35
C      16.48      11.71       7.56
C      17.59      11.22       6.57
C      16.53      11.10       2.96
C      16.60       9.52      10.78
C      15.36      11.22       6.58
C      16.47      10.75       5.56
C      15.35       9.82       7.27
C      16.47      10.30       8.28
C      16.46       9.30       6.29
C      17.59       9.80       7.25
C      16.49      10.95       4.16
C      16.51       9.97       9.65
C      12.25       4.15       7.23
C      12.81       5.15       6.17
C      12.41       3.85       2.57
C      14.35       4.14      10.32
C      12.41       2.96       6.22
C      12.97       3.97       5.13
C      13.86       2.69       6.75
C      13.71       3.88       7.78
C      14.43       3.70       5.70
C      14.26       4.90       6.69
C      12.64       3.95       3.76
C      14.07       3.95       9.15
C       6.06       3.26      17.21
C       6.37       3.03      18.58
C       6.81       2.64      21.37
C       6.66       1.53      20.47
C       6.47       1.72      19.13
C       6.97       2.46      22.75
C       7.19       3.56      23.59
C       6.31       5.66      17.55
C       6.61       5.48      18.90
C       6.60       4.15      19.44
C       6.89       6.58      19.78
C       7.09       6.40      21.12
C       7.04       5.08      21.70
C       6.82       3.96      20.83
C       7.24       4.85      23.07
C       5.99       4.58      16.71
C      17.59       9.09      17.73
C      17.56       9.46      19.08
C      17.44      10.05      21.87
C      18.71       9.89      21.19
C       5.31       9.64      19.85
C      17.37      10.41      23.22
C      16.13      10.66      23.81
C      15.16       9.10      17.61
C      15.09       9.46      18.97
C      16.29       9.60      19.73
C      13.83       9.66      19.64
C      13.77       9.92      20.98
C      14.97      10.07      21.76
C      16.24       9.91      21.11
C      14.94      10.46      23.10
C      16.41       8.88      17.01
C      12.88       4.79      17.15
C      12.41       4.64      18.47
C      11.55       4.40      21.18
C      10.73       5.05      20.19
C      11.14       5.15      18.89
C      11.15       4.28      22.52
C      11.94       3.57      23.43
C      14.91       3.57      17.70
C      14.50       3.42      19.03
C      13.23       3.97      19.42
C       1.87       2.75      20.00
C       1.45       2.62      21.30
C      13.62       3.16      21.73
C      12.81       3.84      20.77
C      13.16       3.00      23.04
C      14.11       4.26      16.78
C      16.62      11.51       1.58
C       7.89       2.99       1.43
C      11.97       3.49       1.25
C      16.11      11.31      25.15
C       7.52       3.29      25.02
C      11.44       3.30      24.81
C      15.43       7.78       4.82
C       4.73       1.40      16.44
C       6.95      11.25      22.15
C      12.08       8.34      18.73
C       6.72       7.33       5.55
C       3.37       1.35      21.92
C       6.20       9.67       8.40
Cl       2.35       3.39       4.66
Cl       4.18       5.32       7.07
Cl       9.14       5.68       7.71
O      15.50       8.26      12.35
O      14.46       5.76      11.94
O       2.03       3.76      12.33
O       4.55       4.16      12.19
O       5.55       6.20      12.27
O      17.77       8.43      12.47
O      15.36       7.95      15.12
O      14.14       5.50      14.76
O       2.18       3.80      15.00
O       4.67       4.05      14.80
O       5.63       6.09      14.91
O      17.62       8.18      15.10
O      16.51       6.09      13.60
O      12.35       2.37       0.81
O      11.07       0.04       1.14
O      15.51      11.57       0.93
O       7.47       1.95       0.81
O       8.70       3.85       0.96
O      11.18       4.31       0.64
O      11.82       2.21      25.34
O      17.22      11.61      25.68
O      14.95      11.61      25.64
O       7.25       2.14      25.49
O       8.14       4.21      25.67
O      10.64       4.16      25.34
O       9.67       2.06      26.88
O      16.54       8.08       5.68
O       5.94       2.19      16.37
O       6.43       9.93      21.92
O      12.66       9.65      18.89
O       6.98       6.00       5.03
O       2.14       1.98      22.28
O       5.23       9.03       7.55
O      13.21       7.68      13.46
O      12.88       0.30      26.84
