160

Al       5.33       4.84      14.34
Al       3.62       7.58      14.29
Al       2.12       4.99      14.36
Al      -4.60      10.08       0.00
Al      -0.44      10.72      28.66
Al      -1.92       8.11      28.64
H       2.09       8.41       6.01
H       5.40       2.93       8.22
H       7.80       5.56       6.06
H       5.29       3.87      20.20
H       5.44       3.79      22.69
H       2.27       0.85      22.77
H       4.37       7.25      20.84
H       4.89       7.47      23.26
H       8.50       8.10      19.89
H      -1.76       6.48       8.36
H       1.21       1.90       8.43
H       5.39       2.44       5.77
H       3.42       9.98       9.54
H       3.97       8.31       9.89
H       2.97       8.65       8.43
H       1.72       4.24      20.94
H       2.01       5.01      19.33
H       0.76       3.74      19.51
H      -0.05      10.67      23.76
H       0.18      11.46      22.15
H       6.98       1.10      23.58
H       0.36      11.08       6.48
H       2.07      10.65       6.82
H       7.09       0.95       7.83
H       3.39       6.47       5.98
H       2.59       4.86       5.97
H       4.06       5.14       6.97
H      -2.14      10.21       8.34
H      -3.00       8.64       8.49
H      -3.67       9.93       7.44
H       7.32       3.90      13.52
H      11.56       0.40       0.88
C       5.68       7.24      12.50
C       0.97       7.23      11.13
C      -0.95       8.24       6.96
C      -0.08       7.52       5.83
C      -0.92       6.93       7.84
C       0.40       7.41       8.57
C      -0.09       6.22       6.74
C       1.26       6.70       7.43
C      -0.29       7.61       4.44
C       0.68       7.32       9.95
C       3.34       3.02      11.05
C       1.50       7.00      12.45
C       2.13       2.01       7.85
C       2.14       1.71       6.49
C       4.49       2.31       6.37
C       4.49       2.59       7.72
C       3.31       2.45       8.48
C       3.32       1.86       5.71
C       3.33       1.53       4.34
C       3.31       2.74       9.86
C       3.30       1.21       3.17
C       6.15       7.52      11.17
C       3.44       3.55      12.38
C       7.08       6.38       7.92
C       7.18       6.31       6.54
C       5.66       8.21       6.36
C       5.61       8.33       7.76
C       6.33       7.40       8.56
C       6.48       7.24       5.74
C       6.63       7.22       4.34
C       6.27       7.49       9.96
C       6.82       7.30       3.14
C       1.19       7.47      17.52
C       5.52       7.11      16.28
C       0.66       6.67      20.92
C       0.68       6.76      22.31
C       1.39       9.10      22.17
C       1.40       9.00      20.77
C       1.04       7.79      20.13
C       1.02       7.97      22.96
C       0.91       8.12      24.36
C       1.10       7.65      18.72
C       0.73       8.30      25.55
C       3.47       2.83      17.49
C       1.57       7.14      16.18
C       4.64       3.22      20.78
C       4.72       3.17      22.16
C       2.93       1.51      22.20
C       2.85       1.57      20.82
C       3.70       2.42      20.07
C       3.87       2.31      22.89
C       3.98       2.16      24.29
C       3.58       2.58      18.68
C       4.05       1.90      25.48
C       5.90       7.43      17.63
C       3.44       3.40      16.18
C       5.39       7.48      21.16
C       5.68       7.60      22.51
C       7.98       8.09      21.97
C       7.71       7.96      20.62
C       6.40       7.65      20.20
C       6.98       7.91      22.95
C       7.28       8.05      24.32
C       6.13       7.54      18.82
C       7.59       8.20      25.49
C       3.21       0.60       1.87
C       0.40       8.73       7.67
C      -0.86       7.92       1.88
C       7.24       7.68       1.82
C       4.05       1.32      26.79
C       0.23       8.62      26.86
C       8.14       8.52      26.78
C       1.24       8.00       6.56
C      -0.46       7.71       3.24
C       3.75       9.03       9.10
C       1.25       4.58      20.00
C       0.67      11.15      23.09
C       1.11      10.94       7.27
C       3.14       5.59       6.59
C      -2.75       9.47       7.81
Br       7.96       5.07       8.97
Br       4.58       9.34       5.28
Br       0.17       5.26      23.34
Br       1.88      10.51      19.75
Br       1.56       0.52      19.92
Br      -2.34       8.58      22.50
Br      -0.45       4.46       6.10
Br       0.58       0.99       5.71
O       4.60       3.85      12.78
O       2.28       8.00      15.54
O       1.24       5.98      15.74
O       2.28       3.69      15.68
O       3.68       5.82      14.32
O       6.94       8.85       1.46
O       2.05       0.29       1.46
O       4.32       0.37       1.26
O      -0.46       9.00       1.30
O      -1.64       7.05       1.35
O       7.93       6.82       1.16
O       6.03       6.15      13.01
O       7.78       9.60      27.32
O       2.92       1.03      27.28
O       5.20       1.08      27.33
O       0.53       9.77      27.34
O      -0.54       7.76      27.41
O       9.01       7.69      27.24
O      -1.99       9.88      28.67
O       4.87       8.11      13.01
O       2.36       7.85      12.88
O       1.13       5.95      13.07
O       2.34       3.71      13.03
O       4.56       3.64      15.65
O       5.86       5.98      15.85
O       4.81       8.00      15.66
O       4.93       9.36       8.32
O       0.22       5.55      20.29
O       1.77      10.25      22.80
O       0.68       9.95       8.23
O       2.36       5.96       7.75
O      -2.05       8.98       6.64
O       6.83       3.93      14.35
O      11.82       0.02       0.03
