62

Al       9.93       7.34       8.74
Al       6.61       7.34       8.74
H       4.96       8.20      10.26
H       8.25       6.50       7.21
H       2.99       6.78       4.69
H       2.98       6.70       2.21
H       6.89       8.56       2.18
H       6.38       6.14      15.32
H      10.24       7.92      12.77
H      10.27       8.01      15.26
H       7.05       0.79       9.36
H       6.16      13.90       8.13
H      10.32      11.40       9.13
H      10.35      13.84       9.24
H       2.90       3.29       8.35
H       2.86       0.85       8.24
H       7.17       4.27       9.38
H       6.04      10.41       8.11
C       8.24       9.78       8.66
C       8.32       7.15      11.15
C       4.98       4.91       8.83
C       4.91       7.54       6.34
C       4.95       7.64       4.85
C       3.85       7.15       4.13
C       3.84       7.11       2.74
C       4.95       7.59       2.02
C       6.04       8.14       2.73
C       6.04       8.16       4.12
C       4.98       7.53       0.61
C       8.29       7.17      16.88
C       8.31       7.11      15.46
C       7.22       6.55      14.77
C       7.20       6.53      13.37
C       8.29       7.05      12.64
C       9.39       7.55      13.35
C       9.41       7.59      14.73
C       4.98       3.44       8.85
C       8.23      11.25       8.64
C       6.16       2.70       9.15
C       6.12       1.30       9.11
C       7.06      11.99       8.34
C       7.09      13.39       8.38
C       9.41      11.96       8.94
C       9.42      13.34       8.99
C       3.81       2.73       8.54
C       3.79       1.35       8.50
C       4.96       0.60       8.77
C       8.25      14.09       8.71
Cl       7.40       8.90       4.89
Cl       5.84       5.78      12.61
O       9.32       9.16       8.88
O       7.22       7.41      10.55
O       6.12       5.50       9.02
O       3.77       7.66       6.90
O       3.89       5.53       8.59
O       6.00       7.28       6.93
O       7.10       9.19       8.47
O       9.45       7.03      10.58
O       4.95       7.93       9.33
O       8.27       6.76       8.15
O       7.33       3.29       9.46
O       5.88      11.40       8.03
