113

Zn      10.12      12.66       6.80
Zn       8.42      13.74       8.61
Zn      20.85       5.00       6.74
Zn      -2.38      21.39       8.56
Zn       8.52      25.13      15.28
Zn      10.11       1.02       0.08
H      10.71      19.86       8.86
H      11.43      17.41      10.10
H      13.95      17.53       8.77
H      12.83      16.07       6.59
H      12.08      18.53       5.36
H       9.58      18.39       6.71
H       9.95      10.87      11.47
H      11.19       9.58      13.22
H      14.91      10.61      11.30
H      13.65      11.68       9.42
H       4.78      11.10       8.33
H       3.46       9.04       7.76
H       8.38       9.04       7.23
H       7.95      16.07       4.52
H       6.29      17.06       2.94
H       4.66      13.14       2.21
H      15.37      24.23      12.18
H      20.19       8.06      13.72
H      16.71       6.77      11.55
H      11.90      23.14       9.89
H      -0.11      18.33       6.10
H       1.33      17.49       4.24
H       6.71       3.50       1.95
H       5.07       4.21       3.71
H       8.31       6.98       6.52
H       7.63       5.33       5.15
H       5.99       6.01       5.19
H       6.49       4.83       6.43
C      10.97      12.07       9.28
C      10.21      15.59       7.90
C       8.15      13.60       5.37
C       7.51      11.37       8.04
C      11.60      17.66       9.05
C      11.17      19.00       8.36
C      12.57      19.05       7.62
C      12.98      17.71       8.31
C      12.37      16.92       7.09
C      11.94      18.27       6.41
C      10.56      18.21       7.16
C      11.00      16.84       7.83
C      11.03      10.77      11.42
C      11.73      10.06      12.40
C      13.13      10.02      12.36
C      13.82      10.63      11.31
C      13.12      11.24      10.27
C      11.72      11.34      10.34
C       5.27      10.19       7.99
C       4.55       9.05       7.66
C       5.18       7.86       7.25
C       6.59       7.84       7.09
C       7.30       9.02       7.39
C       6.67      10.16       7.84
C       7.23      15.43       4.00
C       6.31      15.99       3.13
C       5.35      15.18       2.50
C       5.37      13.80       2.70
C       6.32      13.26       3.57
C       7.24      14.06       4.26
C      14.53      22.91       9.90
C      13.48      20.23       7.52
C      -1.62      20.61       6.10
C       4.34       6.64       7.18
C      17.45       8.18      13.66
C      13.90       9.41      13.48
C       8.13       1.18       1.90
C       4.33      15.83       1.64
C      14.30      24.28      12.03
C      19.76       7.50      12.89
C      18.37       7.50      12.72
C      17.79       6.78      11.66
C      12.33      23.64      10.75
C      13.72      23.61      10.95
C      -0.01      18.90       5.18
C       0.81      18.44       4.15
C       0.99      19.22       3.00
C       6.56       2.90       2.85
C       5.66       3.30       3.83
C      -0.74      20.09       5.01
C       6.83       5.68       5.82
N       7.33       6.77       6.63
N       6.29      11.80       3.80
O      11.40      11.93       8.07
O       9.96      12.76       9.63
O      10.62      14.63       7.17
O       9.18      15.53       8.68
O       9.24      12.99       5.08
O       7.80      13.99       6.51
O       8.66      11.37       7.48
O       7.07      12.35       8.75
O      20.38       5.53       8.71
O      15.55      22.21      10.24
O      13.17      21.17       6.70
O      14.51      20.21       8.26
O       3.67       3.81       5.75
O      -1.30      20.32       7.31
O       3.24       6.68       6.50
O       4.72       5.64       7.87
O      10.08      25.11      13.90
O      17.79       9.31      14.18
O      13.52       8.26      13.93
O      14.90      10.08      13.90
O       1.61      17.53       1.50
O       9.06       1.95       1.45
O       3.36      15.13       1.17
O       4.48      17.08       1.43
O       6.81      11.38       4.84
O       5.75      11.10       2.93
