120

Zn       9.21       4.36       2.72
Zn       8.56      13.39       9.71
Zn       4.63      12.75      10.54
Zn       5.28       3.72       3.54
H       2.93       7.55       0.55
H       6.57       9.82       0.12
H       6.17       6.91       3.30
H       8.30       7.18       3.35
H       7.57       8.58       4.17
H      10.00       7.31       5.15
H       4.32       8.19       5.80
H       3.90      11.36       2.89
H       9.59      10.43       2.22
H       6.98      14.69       6.08
H      11.20      14.54       3.78
H      11.61      12.19       7.39
H       9.48      12.08       7.14
H      10.21      10.93       5.98
H       7.77      10.30       7.46
H       5.58       9.45       6.77
H       6.00      11.47       2.98
H       8.19      12.35       3.71
H      10.91       9.56      12.70
H       7.27       7.29      13.13
H       7.67      10.20       9.96
H       5.54       9.93       9.91
H       6.27       8.53       9.09
H       3.84       9.80       8.11
H       9.52       8.92       7.46
H       9.94       5.75      10.36
H       4.25       6.68      11.03
H       6.86       2.42       7.17
H       2.64       2.57       9.47
H       2.23       4.92       5.87
H       4.37       5.03       6.12
H       3.63       6.18       7.27
H       6.07       6.81       5.79
H       8.26       7.66       6.49
H       7.84       5.64      10.27
H       5.65       4.76       9.55
C       3.71       6.04       2.65
C       4.48       7.13       1.98
C       3.93       7.79       0.89
C       4.69       8.76       0.22
C       5.98       9.07       0.65
C       6.52       8.42       1.77
C       5.77       7.45       2.44
C       7.10      12.83      12.26
C       8.27       8.28       3.37
C       9.63       8.83       3.66
C      10.39       8.21       4.66
C       3.76       8.71       5.03
C       4.29       9.86       4.40
C       3.53      10.46       3.39
C      10.16       9.95       3.02
C       6.20      13.03       8.07
C       5.42      13.41       6.85
C       5.98      14.30       5.93
C       5.22      14.70       4.83
C       3.93      14.21       4.63
C      11.26      13.29       5.54
C       4.13      12.89       6.65
C       2.81       2.03       3.89
C       9.51      11.78       6.08
C       8.15      11.36       5.62
C       7.39      10.54       6.47
C       6.15      10.07       6.07
C       5.61      10.38       4.81
C       6.37      11.22       3.97
C       7.62      11.70       4.37
C      10.13      11.07      10.60
C       9.36       9.98      11.27
C       9.91       9.32      12.36
C       9.16       8.35      13.03
C       7.86       8.04      12.60
C       7.32       8.69      11.49
C       8.07       9.66      10.82
C       6.74       4.28       0.99
C       5.57       8.83       9.89
C       4.21       8.28       9.60
C       3.46       8.90       8.59
C      10.08       8.39       8.23
C       9.55       7.25       8.85
C      10.31       6.65       9.87
C       3.68       7.16      10.24
C       7.64       4.08       5.19
C       8.42       3.70       6.41
C       7.86       2.81       7.32
C       8.62       2.40       8.43
C       9.91       2.90       8.62
C       2.58       3.82       7.71
C       9.71       4.22       6.60
C      11.03      15.08       9.36
C       4.33       5.33       7.18
C       5.70       5.75       7.63
C       6.45       6.57       6.79
C       7.69       7.04       7.18
C       8.23       6.73       8.44
C       7.47       5.89       9.28
C       6.22       5.41       8.88
O       2.53       5.81       2.20
O       4.23       5.40       3.63
O       5.85      12.65      12.06
O       7.88      13.52      11.52
O       7.78       8.79       2.12
O       7.37      13.53       8.17
O       5.68      12.25       8.94
O       4.05       2.27       4.01
O       2.02       2.57       3.04
O       9.99      12.86       5.27
O      11.31      11.29      11.05
O       9.61      11.71       9.63
O       7.99       4.45       1.20
O       5.96       3.59       1.73
O       6.06       8.32      11.13
O       6.47       3.58       5.08
O       8.16       4.86       4.32
O       9.79      14.84       9.24
O      11.82      14.54      10.21
O       3.85       4.25       7.98
