130

Al       1.93      16.62       6.45
Al       4.84       5.47      19.08
Al       5.28      16.66       6.46
Al       1.50       5.43      19.07
H       5.08      18.76       2.79
H       1.69       3.33      22.74
H       5.37      21.67      25.06
H       1.40       0.43       0.48
H       2.27      21.84       2.41
H       4.50       0.26      23.12
H       1.61       1.70      24.59
H       5.16      20.39       0.94
H       4.87      19.45       9.48
H       1.90       2.65      16.05
H       4.96      21.12      11.37
H       1.81       0.98      14.16
H       4.22       1.24      14.13
H       2.55      20.85      11.40
H       4.31       2.91      16.02
H       2.46      19.18       9.51
H       5.26       8.20      22.16
H       1.51      13.89       3.37
H       5.19       9.81      24.10
H       1.58      12.28       1.43
H       5.86      12.60       1.34
H       0.91       9.50      24.20
H       5.79      14.19       3.30
H       0.98       7.90      22.24
H       5.24       8.42      16.18
H       1.53      13.67       9.35
H       5.14      10.06      14.28
H       1.63      12.03      11.25
H       5.78      14.34       9.72
H       0.99       7.76      15.81
H       4.69       1.97      19.92
H       2.08      20.12       5.61
H       3.61      18.33       6.02
H       3.16       3.76      19.51
H       0.23      14.88       6.30
H       6.54       7.21      19.24
C       3.61      15.04       4.62
C       3.16       7.05      20.91
C       3.62      15.05       8.27
C       3.15       7.04      17.26
C       0.28      18.25       8.26
C       6.49       3.84      17.27
C       0.24      18.30       4.68
C       6.53       3.79      20.85
C       0.27      19.36       3.63
C       6.50       2.73      21.90
C       5.93      19.44       2.69
C       0.84       2.65      22.84
C       5.98      20.36       1.65
C       0.79       1.74      23.88
C       0.38      21.24       1.52
C       6.39       0.85      24.02
C       1.42      21.15       2.47
C       5.35       0.94      23.07
C       1.37      20.24       3.53
C       5.40       1.85      22.01
C       0.49      22.24       0.47
C       6.28      -0.15      25.06
C       6.45       2.87      16.14
C       0.32      19.22       9.39
C       0.95       2.33      15.62
C       5.82      19.76       9.91
C       0.91       1.41      14.58
C       5.86      20.68      10.95
C       6.36       1.02      14.05
C       0.42      21.07      11.48
C       5.17       1.56      14.57
C       1.60      20.53      10.97
C       5.22       2.48      15.61
C       1.56      19.61       9.93
C       3.64      14.12       3.45
C       3.13       7.97      22.08
C       2.45      13.59       2.92
C       4.32       8.50      22.62
C       2.49      12.71       1.85
C       4.28       9.38      23.68
C       3.73      12.35       1.29
C       3.04       9.75      24.24
C       4.92      12.89       1.80
C       1.85       9.20      23.73
C       4.88      13.77       2.88
C       1.89       8.33      22.65
C       3.65      14.09       9.41
C       3.12       8.00      16.12
C       2.48      13.44       9.85
C       4.29       8.65      15.68
C       2.53      12.54      10.89
C       4.24       9.55      14.64
C       3.75      12.26      11.55
C       3.02       9.83      13.99
C       4.90      12.94      11.10
C       1.87       9.15      14.43
C       4.87      13.83      10.05
C       1.90       8.26      15.48
C       4.35       1.75      20.96
C       2.42      20.34       4.57
N       6.18       0.09      13.00
N       0.59      22.00      12.54
N       3.89      11.45       0.21
N       2.88      10.64      25.32
N       3.91      11.38      12.63
N       2.86      10.71      12.90
O       4.75      15.47       7.86
O       2.02       6.62      17.68
O       2.46      15.40       5.05
O       4.31       6.69      20.48
O       1.37      17.91       5.12
O       5.40       4.19      20.41
O       2.48      15.36       7.79
O       4.29       6.73      17.74
O       1.41      17.83       7.84
O       5.36       4.26      17.70
O       4.73      15.38       5.12
O       2.04       6.71      20.42
O       3.60      17.45       6.43
O       3.17       4.64      19.10
O       5.83      17.92       7.79
O       0.94       4.17      17.74
O       5.79      17.88       5.06
O       0.98       4.21      20.47
O       0.25      15.84       6.44
O       6.52       6.26      19.09
O       3.20       1.39      21.18
O       3.57      20.71       4.35
F       6.08      12.70      11.73
F       0.69       9.39      13.81
