177

Zn      -1.58       4.33       8.06
Zn       1.61       4.34       8.12
Zn       0.01       7.16       8.12
Zn       0.08       5.26       5.51
Zn       1.64      -4.23      14.29
Zn      -9.04       8.70      14.27
Zn      -1.58      -4.30      14.25
Zn       9.11       0.01       1.92
H      12.56       4.37       2.34
H      -0.72      10.38       1.34
H      -1.96       9.88       5.06
H      -2.04      11.30       3.21
H       1.72      10.34       5.60
H       2.24       9.55       4.09
H       2.22      11.67       3.16
H      -0.72      10.83       5.90
H      14.55       0.92       2.21
H       2.13       2.29       3.13
H       2.75       1.08       4.27
H      -4.92       5.58      10.28
H       3.85       1.90       1.60
H       3.41       4.52       2.94
H       5.26       3.78       1.73
H       5.24       3.28       5.93
H       4.34       1.78       6.13
H       5.73       0.64       4.62
H      -3.40       0.89       5.06
H       6.80       2.02       4.73
H       4.55       5.00       4.22
H       5.33       6.44       9.40
H      -6.58       6.82      11.33
H       4.65       5.44      10.69
H     -12.05       6.36      12.29
H       4.29       8.71       8.86
H     -12.00       9.43      10.14
H       2.19       8.09      11.83
H      11.95       1.59       5.17
H     -13.71       7.60      13.65
H     -14.29       9.17      13.09
H       3.13       9.41       9.98
H     -13.14      10.35      11.13
H      -2.42       8.97      11.06
H       1.58       0.27       9.22
H      -0.05      -0.34       8.90
H       0.66      -2.18      10.19
H       1.96      -1.27      10.95
H      -5.39       4.34       5.19
H       1.57      -0.13      13.21
H      -1.78       1.48      11.64
H      -2.08       0.80      10.05
H      -1.75      -1.41      10.79
H      -2.07      -0.73      12.38
H      -3.89       5.57      11.71
H       0.52       2.30      12.26
H      -0.07       0.45      13.53
H      -5.17       7.75       8.98
H      -3.94       9.02       9.11
H      -5.09      10.12      10.82
H      -7.36       8.26       9.81
H      -3.93       8.73      14.87
H      -6.38       6.60      14.01
H       1.43      13.72       4.40
H       7.59       3.90       2.56
H      -1.18       8.66       2.89
H      -2.79       3.66       2.23
H       0.52       8.24       2.69
H       1.01      10.23       1.56
C       2.53       3.67       5.38
C      -2.89       8.10      11.55
C      -3.64       7.31      10.44
C      -2.60       6.74       9.45
C      -5.38       8.39      12.09
C      -5.63       6.87      11.89
C      -3.91       8.67      12.62
C      -0.15       9.05       2.99
C       0.06      10.30       2.11
C      -1.00      10.40       4.92
C       1.46      10.17       4.55
C      14.16       1.69       2.88
C       0.10       9.43       4.45
C       0.08      11.59       2.95
C      -1.19      11.54       3.87
C       0.01       2.39       9.60
C       1.36      11.54       3.85
C       3.03       1.93       3.64
C       4.10       1.49       2.60
C       4.20       4.15       3.61
C       4.76       2.47       5.38
C       3.62       3.05       4.52
C      -3.89       1.65       4.45
C       5.50       2.06       3.00
C       5.39       3.61       2.81
C       5.77       1.73       4.48
C       4.91       6.47      10.42
C       0.14       8.22       5.37
C     -12.14       7.03      11.43
C       4.02       8.77       9.92
C       3.11       7.49      11.87
C       3.66       7.35      10.41
C     -12.61       8.42      11.95
C      12.70       2.06       4.53
C     -12.91       9.34      10.75
C     -13.92       8.20      12.75
C       0.64      -0.05       9.70
C       0.90      -1.23      10.67
C       0.86       1.37      11.77
C       2.56       6.76       9.52
C      -1.40       0.74      10.92
C       0.02       1.13      10.47
C       0.04      -1.03      11.94
C       0.63       0.16      12.74
C      -5.00       3.57       4.52
C      -1.40      -0.67      11.52
C       0.09      12.81       2.04
C       0.07      -2.28      12.81
C      -6.46       9.03      12.97
C       6.57       1.50       2.07
C     -11.59       9.04      12.89
C      -2.44       3.78       5.31
C      11.59       1.48       2.11
C      -3.54       3.20       2.88
C      13.05       3.60       2.96
C      -3.47       3.17       4.44
C      12.63       2.09       2.97
C      -6.88       9.21      10.17
C      -1.78       7.35      12.12
C      -3.61      10.09      12.78
C      -3.78       8.02      14.03
C      -5.97       6.05      13.13
C       1.51      12.71       4.84
C      -1.55      12.78       4.56
C       4.16       0.04       2.44
C       6.72       4.27       3.15
C      -4.55       8.31       9.69
C     -10.81       7.11      10.82
C       2.74       6.18      12.41
C       2.29       1.54      11.50
C      -5.45       9.09      10.69
C      -4.50       6.22      11.07
N      -0.82       6.79      12.49
N      -3.21      11.18      12.92
N      -1.91      13.70       5.17
N      -4.77      14.64       2.29
N      -9.76       7.16      10.32
N       2.46       5.12      12.82
N       3.44       1.64      11.34
O       0.02       5.31       7.47
O       6.30       1.54       0.82
O     -10.75       8.25      13.43
O       1.54       4.18       4.75
O      10.78       0.66       2.67
O     -11.67      10.30      13.08
O      11.60       1.82       0.88
O      -6.14      10.09      13.61
O       7.63       1.08       2.61
O       0.30      12.62       0.80
O      -1.04      -2.71      13.26
O      -1.12       2.91       9.33
O      -2.79       5.56       9.03
O       1.15       2.80       9.21
O       0.04       8.44       6.62
O       2.78       5.61       9.04
O      -1.56       4.51       4.75
O       1.52       7.48       9.34
O      -2.54       3.53       6.56
O      -7.47      10.27      10.11
O      -3.58       6.84      14.19
O      -5.87       4.83      13.15
O       0.28       7.08       4.81
O       1.76      12.56       6.02
O       6.87       5.15       3.98
O       2.69       3.66       6.64
O      -1.66       7.53       9.12
O       0.03      -5.21      14.88
O      -0.08      13.94       2.60
O       1.22      -2.80      13.03
O      -7.59       8.47      12.93
