152

Zn       9.10      10.61      12.98
Zn       9.08       1.88       0.58
Zn      19.74      15.05       0.67
Zn      16.58      14.99       0.67
Zn       0.00       5.31       9.44
Zn      16.63       6.21       6.84
Zn      -0.04       3.47       6.84
Zn       1.52       6.31       6.81
H      16.09      11.90       9.42
H      17.06      11.17       0.33
H       6.99       3.69      14.57
H      15.98       7.08       1.13
H      16.90       7.26       3.41
H      19.30      10.66       5.83
H       5.17       0.60       8.32
H       4.40       5.57      11.68
H       3.86       2.63      12.93
H       2.17       2.94      11.15
H      -1.36       0.24       9.32
C       6.63       1.36       2.17
C       4.47       6.64      11.47
C       4.16       7.77      12.52
C       3.31       8.54      11.41
C       4.62       9.32      10.95
C       5.45       8.55      12.05
C      13.60      10.94      11.60
C      14.45      11.75      10.85
C      15.43      11.24       9.98
C      15.53       9.87       9.90
C      14.68       8.96      10.58
C      11.61       9.10      12.95
C      13.66       9.52      11.44
C      12.77       8.63      12.11
C      12.96       7.27      11.99
C      13.98       6.70      11.20
C      14.82       7.55      10.47
C      17.03      10.32       1.01
C      16.48       9.13       0.59
C      16.43       8.01       1.47
C      16.95       8.11       2.74
C      17.54       9.32       3.20
C      -0.02      -2.41      12.88
C      17.57      10.46       2.32
C      18.19      11.67       2.76
C      18.82      11.73       4.01
C      18.81      10.60       4.86
C      18.17       9.44       4.47
C       6.37       0.53       5.10
C       6.18       0.15       6.44
C       5.28       0.85       7.27
C       4.55       1.88       6.73
C       4.60       2.25       5.35
C      18.17      12.89       1.91
C       5.56       1.57       4.52
C       5.65       1.96       3.15
C       4.82       2.95       2.63
C       3.87       3.57       3.48
C       3.74       3.24       4.81
C      11.16       2.10       5.04
C      10.98       2.30       6.39
C      12.06       2.74       7.18
C      13.30       3.02       6.62
C      13.48       2.88       5.19
C      11.53       1.57       2.08
C      12.40       2.38       4.39
C      12.58       2.16       3.00
C      13.80       2.45       2.42
C      14.85       2.98       3.19
C      14.71       3.20       4.54
C       2.11      -0.26      13.33
C       3.09       0.71      13.55
C       3.10       1.87      12.74
C       2.16       2.03      11.75
C       1.17       1.05      11.50
C       6.49       9.19      12.91
C       1.13      -0.14      12.32
C       0.15      -1.16      12.05
C      -0.69      -0.98      10.97
C      -0.66       0.15      10.15
C       0.23       1.17      10.43
C      18.19       8.29       5.42
C       0.15       2.38       9.56
C      15.83       6.89       9.57
C       2.61       3.89       5.57
C      15.85       3.84       5.27
C       5.78       7.39      11.02
C       2.59       6.77       9.52
C       4.93       8.16       9.93
C       3.65       7.39      10.37
C      14.12       5.28      11.17
C      19.47      12.91       4.49
C       4.89       3.33       1.26
C       7.07       6.80      10.86
C       7.39      -0.13       4.37
C       6.88      -0.96       7.00
C      14.36       3.36       7.50
C       4.07       0.50      14.57
C       3.74       7.55      13.86
C       2.02       9.11      11.56
C       4.70      10.72      10.71
C       3.71      -4.37      12.56
N      14.23       4.12      11.17
N      20.01      13.83       4.96
N       4.95       3.61       0.13
N       8.11       6.30      10.74
N       8.24      -0.66       3.77
N       7.38      -1.89       7.51
N      15.27       3.63       8.18
N      13.99       5.68       0.40
N       3.38       7.33      14.95
N       0.95       9.56      11.66
N       4.75      11.87      10.50
N       3.03      -3.92      13.39
O       9.04      10.61      14.95
O       0.16      -3.50      12.26
O      17.03      13.27       1.47
O       7.64       2.09       1.93
O      11.77       9.01      14.20
O      18.27       5.33       7.48
O      19.35       7.90       5.80
O       0.18       3.51      10.16
O      15.52       6.84       8.34
O       1.62       3.14       5.79
O      15.70       5.08       5.52
O       6.31       0.24       1.67
O       2.67       6.99       8.27
O      16.84       3.10       5.54
O       1.70       6.11      10.15
O      16.86       6.43      10.15
O       2.76       5.12       5.85
O      17.07       7.80       5.77
O       0.04       2.18       8.31
O      10.60       9.51      12.31
O      -0.38      -2.24      14.09
O      19.30      13.44       1.70
O      10.66       2.37       1.63
O       6.31       9.08      14.16
O      11.68       0.34       1.84
O       7.44       9.73      12.27
F       5.33       8.36       8.66
F      16.52       9.37       9.12
F       3.74       2.58       7.56
F       3.05       4.49       2.93
F      14.00       2.23       1.11
F      10.12       1.64       4.34
F       9.79       2.05       6.97
F      11.86       2.88       8.50
F      16.00       3.28       2.57
F      -1.63      -1.92      10.70
F       2.15      -1.36      14.10
F      12.13       6.44      12.64
F       5.32      -2.84      10.98
