144

Al       5.78      14.34      12.99
Al       2.45      14.30      12.97
Al       2.13      28.62      25.96
Al       5.46       0.02       0.01
H       5.07       3.29       2.48
H       1.74      25.35      23.49
H       5.29       5.69       6.50
H       1.96      22.95      19.46
H       5.45       7.53       8.12
H       2.12      21.10      17.85
H       2.48       6.77       4.89
H       5.81      21.86      21.08
H       5.85       7.88      19.54
H       2.52      20.76       6.43
H       0.89       7.56      19.14
H       4.22      21.07       6.83
H       0.54       8.86      17.21
H       3.87      19.78       8.75
H       5.64       9.46      17.81
H       2.31      19.17       8.15
H       0.37      12.25      19.89
H       3.70      16.39       6.08
H       2.26      10.45      21.14
H       5.59      18.18       4.83
H       2.66      11.39      19.02
H       5.99      17.25       6.95
H       2.85      11.03      10.53
H       6.18      17.61      15.44
H       5.33       9.84       8.14
H       2.00      18.79      17.83
H       2.60       4.47       4.85
H       5.93      24.17      21.12
H       5.28      10.01      20.71
H       1.95      18.63       5.26
H       2.64       8.62       6.50
H       5.97      20.02      19.46
H       4.13      12.69      13.60
H       0.80      15.95      12.36
H       3.77       7.19      25.48
H       0.44      21.44       0.49
C       3.80      21.77       2.00
C       0.47       6.87      23.97
C       4.11      15.67      10.97
C       0.78      12.97      14.99
C       4.10      16.12      14.60
C       0.77      12.52      11.36
C       1.66       3.21       3.40
C       4.99      25.42      22.57
C       1.67       4.24       4.33
C       5.00      24.40      21.64
C       0.50       4.97       4.61
C       3.83      23.67      21.35
C       6.01       4.57       3.92
C       2.68      24.06      22.04
C       5.99       3.55       2.99
C       2.66      25.08      22.98
C       0.51       2.85       2.69
C       3.84      25.79      23.28
C       6.17       6.33       6.49
C       2.84      22.30      19.48
C       6.26       7.38       7.40
C       2.93      21.26      18.57
C       0.72       8.22       7.43
C       4.05      20.42      18.54
C       1.77       7.97       6.52
C       5.10      20.66      19.45
C       1.68       6.93       5.61
C       5.01      21.71      20.36
C       0.55       6.09       5.57
C       3.88      22.55      20.39
C       1.92       9.74       9.08
C       5.25      18.90      16.89
C       1.93      10.76      10.01
C       5.26      17.87      15.96
C       0.75      11.47      10.30
C       4.08      17.17      15.66
C       6.26      11.10       9.59
C       2.93      17.53      16.38
C       6.26      10.07       8.66
C       2.93      18.56      17.31
C       0.76       9.34       8.38
C       4.09      19.29      17.58
C       2.03       9.74      20.34
C       5.36      18.90       5.63
C       0.15       8.36      19.31
C       3.48      20.28       6.65
C       0.03       9.29      18.08
C       3.36      19.35       7.88
C       0.76      12.18      16.20
C       4.09      16.46       9.76
C       0.61       9.16      20.56
C       3.94      19.48       5.40
C       2.11      10.44      18.95
C       5.44      18.20       7.01
C       0.67      10.67      18.39
C       4.00      17.97       7.57
C       6.52      11.34      19.53
C       3.19      17.29       6.44
C       6.32      10.37      20.69
C       2.99      18.27       5.27
C       0.72      11.50      17.21
C       4.05      17.13       8.76
C       0.55       8.34      21.76
C       3.88      20.29       4.21
C       0.49       7.66      22.76
C       3.82      20.98       3.21
C       3.81      26.84      24.34
C       0.48       1.80       1.63
O       2.98      15.71      14.17
O       6.31      12.93      11.80
O       5.25      15.39      11.46
O       1.92      13.25      14.50
O       5.25      15.74      14.19
O       1.92      12.89      11.77
O       6.31      13.29      14.52
O       2.97      15.35      11.45
O       1.60       1.39       1.19
O       4.93      27.25      24.78
O       4.12      13.52      13.10
O       0.79      15.12      12.87
O       2.66      22.04       1.51
O       5.99       6.59      24.46
O       3.79       6.30      25.86
O       0.46      22.33       0.10
O       4.93      22.09       1.53
O       1.60       6.54      24.43
O       2.66      27.21      24.74
O       5.99       1.42       1.22
F       2.84       2.55       3.22
F       6.17      26.09      22.75
F       5.09      11.77       9.75
F       1.76      16.87      16.21
F       2.81       9.63      18.05
F       6.14      19.01       7.92
F       3.00       8.73      20.41
F       6.33      19.91       5.56
F       6.55      11.06      21.90
F       3.22      17.58       4.06
F       5.26      11.75      19.04
F       1.93      16.89       6.93
F       4.84       5.26       4.14
F       1.51      23.38      21.83
F       3.09       9.06       8.87
F       6.42      19.58      17.09
