158

Zn       6.28       7.12       8.59
Zn       3.58       7.81       7.76
H       4.23       8.20       3.61
H       2.88       8.17      12.55
H       7.86       2.33       8.52
H       3.42      12.95       5.98
H      12.18       9.57       5.17
H      12.36       4.39      10.20
H       8.80       7.60       7.44
H       1.03       6.78       8.40
H      -0.16      10.24       5.13
H      10.08       4.62      11.13
H       2.36       7.26      14.83
H       4.22       7.35       1.27
H       6.09       3.20       8.25
H       4.12      11.78       7.45
H       7.77       5.00      11.90
H       6.65       5.97      11.00
H       2.25      10.48       4.87
H       3.38       9.44       5.67
H       9.57      10.25       6.46
H       7.75      10.61       4.80
H       7.30       8.90       3.05
H       8.60       6.79       3.02
H      10.35       6.38       4.73
H       0.05       5.04      10.88
H       1.90       3.39      10.91
H       2.63       2.28       8.81
H       1.50       2.84       6.67
H      -0.33       4.51       6.62
H       5.06       3.39      11.55
H       4.73       4.45      10.29
H       7.02       3.85       4.91
H       7.10       5.27       5.86
H       0.34       5.64      14.42
H      -2.02       5.22      15.03
H      -0.28       4.32       0.61
H       1.56       3.30       1.94
H       3.93       3.76       1.34
H       7.37       7.67       0.69
H       9.72       8.06       0.01
H       8.70       5.76      15.19
H       7.57       3.61      14.63
H       5.20       3.26      15.25
H       7.26       3.76       1.43
H       7.89       3.82       2.99
H       3.38       2.45      12.67
H       2.92       2.64      14.28
H       9.78       2.11       9.61
H      10.70       0.73       9.54
H       2.28      13.44       4.00
H       1.48      14.94       3.75
H       2.96       5.04       5.44
H       2.42       3.81       4.34
H       7.67      10.14       9.91
H       8.63      11.47      10.32
H       7.89      13.07      11.44
H       7.58      14.68      11.05
H       2.44       1.32       4.13
H       3.44       2.33       3.27
C       5.53       9.92       8.59
C       4.49       5.02       7.45
C       5.78      11.39       8.71
C       4.64       3.70       6.80
C       6.88      13.31       9.71
C       4.11       1.96       5.16
C       6.82      11.92       9.51
C       3.94       3.28       5.63
C       4.93      12.24       8.02
C       5.56       2.83       7.37
C       5.07      13.63       8.07
C       5.79       1.53       6.92
C       6.06      14.19       8.95
C       4.99       1.04       5.82
C       4.19      14.49       7.29
C       6.77       0.71       7.57
C       7.77       1.25       8.42
C       3.37      14.00       6.24
C       8.73       0.47       9.04
C       2.55      14.81       5.47
C       0.08       9.45       5.84
C       9.83       5.29      10.30
C       5.60       7.32       5.69
C       4.06       6.88      10.53
C       1.40       9.19       6.19
C       8.51       5.74      10.16
C       0.70       7.49       7.65
C       9.15       6.96       8.24
C      -0.66       7.62       7.30
C      10.51       6.62       8.36
C      -0.96       8.68       6.38
C      10.83       5.72       9.43
C      -1.75       6.83       7.85
C      11.58       7.18       7.55
C      11.34       8.13       6.48
C      -1.51       5.70       8.73
C      -2.30       8.87       5.97
C      12.16       5.23       9.52
C       5.60       6.72       4.34
C       3.60       6.28      11.82
C       4.81       7.32       3.34
C       3.02       7.12      12.78
C       4.80       6.84       2.05
C       2.72       6.61      14.04
C       5.60       5.74       1.69
C       2.88       5.24      14.31
C       6.32       5.06       2.69
C       3.35       4.38      13.31
C       6.33       5.55       4.03
C       3.81       4.91      12.08
C       5.84       5.49       0.25
C       2.57       4.81      15.71
C      10.08       8.29       5.70
C       9.34       9.48       5.71
C       8.33       9.69       4.77
C       8.07       8.73       3.79
C       8.80       7.54       3.78
C       9.78       7.31       4.74
C      -0.27       4.88       8.75
C       0.36       4.55       9.95
C       1.40       3.62       9.97
C       1.81       3.00       8.80
C       1.19       3.32       7.59
C       0.16       4.27       7.56
C       1.17       4.50      16.05
C       0.11       5.02      15.28
C      -1.22       4.78      15.63
C       0.76       4.51       0.34
C       1.80       3.95       1.09
C       3.13       4.20       0.75
C       4.98       5.18      16.22
C       7.92       6.90       0.15
C       6.95       6.59      16.16
C       7.66       5.60      15.47
C       7.02       4.40      15.16
C       5.69       4.19      15.53
N       1.68       8.23       7.12
N       8.20       6.54       9.09
N       7.51       5.41      11.01
N       2.45       9.88       5.66
N       4.38       4.04      11.15
N       7.14       4.86       4.93
N       7.06       3.91       2.42
N       3.50       3.00      13.52
N       9.77       1.10       9.77
N       1.83      14.25       4.41
N       3.14       4.17       4.95
N       7.68      11.10      10.25
N       7.79      13.76      10.69
N       3.42       1.57       3.96
O       6.53       9.12       8.67
O       3.62       5.85       7.01
O       4.32       9.57       8.40
O       5.26       5.28       8.44
O       6.47       6.90       6.54
O       3.19       7.15       9.66
O       4.72       8.20       5.98
O       5.32       7.09      10.43
