184

Zn       5.79       7.61       0.37
Zn       7.21       9.66      18.38
Zn       9.76       7.67      18.06
Zn       7.71       5.09      18.58
Zn      14.15       0.52       8.90
Zn      -0.28       3.41       9.11
Zn       1.63       1.21       8.88
Zn      -0.21      14.84       9.63
H       3.85       6.85      16.06
H       1.89       6.09       8.04
H       3.78      -0.01       6.70
H      14.99      12.61       7.59
H       1.78      -0.07      11.99
H      13.68       5.47       9.87
H      12.29       0.34      11.57
H       0.34      11.42      10.29
H       9.61      12.36       4.16
H      14.65       5.50       2.40
H       7.55       4.33       5.62
H       8.24      12.33      16.65
H       3.98      10.61       4.88
H       5.98      10.14      13.22
H       1.14       3.99      16.93
H       8.44       3.53      12.90
H      12.19      11.26      14.18
H       0.05       3.50      14.85
H       4.76      11.63      11.91
H      13.29      12.78      12.80
H       9.74       2.86      11.03
H      15.73       4.56       4.33
H       9.90       7.70      14.93
H      10.68      13.76       5.73
H       2.98      11.99       6.56
H       6.17       3.83       7.49
H      11.96      10.38       4.36
H      12.82       3.04       2.51
H       6.24       7.10       5.60
H       4.53      13.19       3.30
H       3.42       8.53      13.78
H       3.48       2.36      15.81
H       9.95       6.21      12.80
H       5.86       2.77      17.10
H      10.30      13.48      15.15
H       2.04       1.18      14.51
H       2.26       9.86      12.12
H      11.56      15.11      13.78
H      11.27       5.53      11.24
H      14.44       1.86       3.60
H      13.06      11.81       5.75
H       4.22      14.43       5.15
H       4.48       6.29       6.73
H      11.64       9.73      16.02
H      11.74       8.46       2.27
H       7.40       4.18      15.35
H       2.65       5.31      18.50
H       6.96       9.77      15.27
H       3.88       9.26       2.63
H       8.71       4.84       3.14
H      13.16       6.68       0.63
H       8.35      11.15       2.63
H       4.47       2.63       8.39
H       1.48      13.22       7.86
H      11.86      15.53       6.93
H       6.34      12.53       1.22
H       0.82       3.46       6.23
H      11.39       1.81       9.56
H      15.12      14.07      12.35
H       3.42      13.58      12.45
H      15.89       3.63      12.45
H       6.19       8.36       3.37
H      10.48       3.32       1.19
H      14.23       0.29       5.84
C       4.70       7.54      16.07
C       2.34       5.12       8.21
C       3.00      16.03       7.13
C      14.33      13.48       7.57
C       1.22       0.86      11.88
C      13.29       4.47       9.69
C      13.02      16.47      11.60
C       1.01      12.14      10.75
C      10.70      10.20      16.30
C       7.99       5.08      15.47
C       3.58       4.80      18.29
C       8.97      11.53      16.64
C       6.29       9.01      15.66
C       4.59       9.91       2.13
C       8.10       5.73       2.97
C      12.34       5.96       0.65
C       9.10      10.42       2.35
C       3.67       3.36       8.41
C       1.88      14.22       7.72
C      12.73      14.96       7.24
C       0.13       2.63       6.35
C      12.13       2.61       9.54
C       9.26       6.88      15.26
C      14.52      14.90      11.99
C       2.58      13.27      11.83
C       0.05       2.73      12.12
C       5.16       8.42      15.07
C      10.19      11.47      15.93
C       8.78       5.78      14.52
C       3.83       3.69      17.45
C      10.33      10.09       2.96
C       4.91      11.26       2.41
C       7.37       6.51       3.89
C       5.22       3.52      17.57
C      12.27       4.70       1.27
C      15.56       2.08       5.44
C       3.67       4.70       7.97
C       2.91      14.66       6.86
C      13.12      13.66       6.87
C       0.80       1.79      12.86
C      12.04       3.93      10.03
C      13.23      15.32      12.38
C       2.19      11.95      11.48
C      10.57      11.98       4.53
C      10.82       9.04       2.17
C      14.33       4.49       2.69
C       6.88       5.14       5.94
C       4.01      11.69       4.69
C       4.94       9.85      13.08
C       1.65       3.29      16.27
C       9.13       4.29      12.52
C      11.81      12.29      14.25
C       0.91       2.87      15.10
C       4.19      10.74      12.23
C      12.51      13.23      13.41
C       5.83      11.58       1.40
C       9.95       3.87      11.40
C      15.10       3.87       3.75
C      11.24      12.86       5.46
C       3.52      12.52       5.77
C       5.94       4.77       6.98
C      11.01      10.80       4.02
C      13.17       4.01       2.16
C       6.87       6.29       5.22
C       4.47      12.12       3.49
C       4.46       8.86      13.89
C       6.83       7.53       3.08
C       2.97       3.03      16.50
C       9.27       5.45      13.21
C      10.76      12.49      15.08
C       1.25       1.88      14.23
C       2.87      10.75      11.92
C      12.35      14.58      13.26
C      11.03       4.52      10.88
C      15.05       2.58       4.17
C      12.48      12.71       5.99
C       3.62      13.87       5.88
C      10.97       4.26       0.92
C       4.74       5.35       7.24
C      14.99       1.00       6.16
N       5.48       7.64      17.17
N       1.61       4.10       8.73
N       2.08      16.37       8.07
N      14.62      14.57       8.30
N       0.78       1.25      10.67
N      14.07       3.54       9.08
N      14.21      -0.12      10.79
N       0.75      13.47      10.68
N       9.86       9.58      17.15
N       8.04       5.71      16.66
N       5.31       5.63       0.12
N       8.78      10.41      17.35
N       6.45       8.55      16.91
N       5.27       9.48       1.05
N       7.97       6.23       1.73
N      11.19       6.24       0.01
N       8.91       9.64       1.27
N       2.45       3.01       8.84
N       1.39      15.24       8.42
N      13.62      15.49       8.09
N       0.04       1.97       7.55
N      13.33       2.38       8.99
N       8.83       6.81      16.53
N      15.00      15.70      11.03
N       1.72      14.18      11.35
N       0.06       2.41      10.82
N       5.76       4.44      18.39
N       9.96       8.79       1.16
N       6.05      10.52       0.60
N       7.17       7.33       1.79
N      10.33       5.18       0.18
N      15.46       0.97       7.41
