212

Zr       1.65      16.25      17.51
Zr       1.50      16.38      13.96
Zr      16.31       1.55      17.67
Zr      16.17       1.76      14.12
Zr       2.09       2.16      15.84
Zr      15.72      15.80      15.81
Zr      10.33      10.44       1.55
Zr      10.12      10.28      30.02
Zr       7.86       7.90       1.69
Zr       7.58       7.81      30.16
Zr       7.19      10.91      31.88
Zr      10.75       7.34      31.84
H       0.97      14.19      15.79
H       1.64       1.84      13.01
H      14.13       1.26      15.85
H       1.74       1.70      18.68
H       1.86      16.81      11.27
H       0.06       0.61      11.79
H      14.74       3.97      14.13
H      13.88       2.83      18.45
H      15.91       1.04      20.26
H       0.52       0.16      19.85
H       3.91      14.84      17.39
H       3.18      14.72      15.50
H      15.02       3.94      18.24
H       0.94      15.78      20.13
H       2.96      13.94      14.06
H      15.69       1.05      11.51
H      12.33       9.98      31.81
H       7.50      10.47      29.05
H       8.10       5.77      31.88
H       7.67      10.50       2.70
H       9.60      10.77      27.36
H       8.74       8.92      27.82
H       5.38       6.37      30.17
H       6.58       5.46       2.47
H       8.37       7.49       4.28
H       9.26       9.31       3.88
H      11.79      12.63       1.59
H      12.53      11.49      29.27
H       5.48       6.60       2.25
H      10.81       9.73       4.15
H      11.48      12.67      29.47
H       8.32       7.37      27.54
C       4.28       0.92      17.90
C      16.80      13.73      13.57
C       4.20       1.01      13.68
C      16.81      13.71      18.05
C      13.68      16.82      18.13
C       0.95       4.39      13.82
C      13.65      16.83      13.62
C       0.94       4.32      17.94
C       0.63       7.92      19.84
C       0.41       8.99      21.81
C       0.04      10.10      19.88
C      10.02       0.05      19.90
C       8.91       0.42      21.83
C       7.84       0.64      19.85
C      10.00       0.03      11.83
C       7.82       0.63      11.86
C       8.89       0.38       9.89
C       0.66       7.94      11.85
C       0.38       8.97       9.86
C       0.02      10.10      11.78
C       8.72      16.67      27.89
C       9.31       1.67      27.82
C       8.95       0.53      25.90
C       8.38      13.07       1.88
C      12.80       8.37      29.58
C       8.35      13.07      29.76
C      12.84       8.28       2.04
C       9.75       5.24       2.13
C       4.96       9.77      29.85
C       9.70       5.29      29.62
C       5.05       9.66       1.95
C       1.43       9.40      27.87
C       0.42       9.03      25.88
C      16.45       8.75      27.81
C       8.68      16.62       3.83
C       8.93       0.47       5.83
C       9.30       1.60       3.91
C       1.45       9.25       3.82
C      16.46       8.63       3.85
C       0.40       8.94       5.79
C       9.78       3.92       2.73
C       9.61       2.83       3.25
C       8.31      14.37       2.51
C       8.42      15.43       3.10
C       3.66       9.84      29.21
C       2.61       9.70      28.61
C      14.12       8.32      28.98
C      15.21       8.47      28.47
C       3.72       9.67       2.53
C       2.66       9.52       3.10
C      14.15       8.22       2.65
C      15.24       8.36       3.17
C       9.60       2.89      28.48
C       9.75       3.98      29.00
C       8.47      15.47      28.62
C       8.34      14.40      29.18
C       0.41       8.94       7.22
C       0.40       8.94       8.43
C       8.89       0.41       8.47
C       8.90       0.44       7.25
C       8.90       0.46      23.26
C       8.92       0.49      24.47
C       0.45       9.00      24.46
C       0.44       8.98      23.24
C      16.90      11.33      12.44
C      16.75      12.42      12.96
C       1.03       5.70      13.19
C       0.92       6.75      12.59
C      16.77      12.40      18.67
C      16.93      11.32      19.20
C       0.87       6.71      19.12
C       0.98       5.64      18.54
C      12.33      16.78      13.02
C      11.24      16.92      12.51
C       5.53       1.02      13.11
C       6.61       0.89      12.57
C      11.27      16.95      19.23
C      12.36      16.79      18.72
C       5.58       0.97      18.53
C       6.64       0.87      19.12
N       0.72       7.84      21.18
N       0.05      10.15      21.22
N       0.31       9.01      19.12
N      10.07       0.07      21.25
N       7.76       0.72      21.19
N       8.94       0.32      19.14
N       8.91       0.31      12.58
N       7.75       0.70      10.52
N      10.07      17.20      10.49
N       0.73       7.84      10.51
N      17.18      10.13      10.43
N       0.33       9.04      12.55
N       9.03       0.59      28.59
N       9.31       1.69      26.47
N       8.65      16.57      26.54
N       1.53       9.42      26.52
N      16.43       8.67      26.46
N       0.32       9.10      28.57
N       8.60      16.53       5.18
N       9.31       1.63       5.26
N       9.00       0.54       3.14
N       0.36       8.94       3.10
N      16.42       8.59       5.20
N       1.54       9.29       5.16
O       3.65      17.04      18.16
O       3.92       1.89      17.17
O       0.66      14.40      13.25
O      15.87      14.08      14.36
O       3.48       0.03      13.30
O       3.87       1.94      14.48
O       0.61      14.43      18.43
O      15.92      14.00      17.19
O       3.03      14.74      16.97
O       1.28      16.60      19.74
O       3.11      14.82      14.45
O       1.14      16.74      11.92
O       2.10       0.10      15.77
O       0.75      15.14      15.79
O      14.37       0.64      18.51
O      14.01      15.93      17.30
O      17.06       3.77      13.54
O       1.90       4.01      14.56
O      14.36       0.58      13.20
O      13.93      15.98      14.53
O      17.04       3.68      18.20
O       1.92       3.93      17.25
O      14.59       3.14      17.86
O      16.69       1.26      19.73
O      14.63       3.03      14.31
O      16.53       1.37      11.90
O      15.04       0.91      15.91
O       0.04       2.21      15.90
O      16.78      16.79      17.28
O       1.24       1.47      13.82
O       1.36       1.32      17.87
O      16.72      16.85      14.37
O       9.45      12.44       2.15
O       7.41      12.68       1.15
O      12.13       9.40      29.23
O      12.45       7.46      30.38
O       9.39      12.39      29.43
O       7.38      12.70      30.48
O      12.10       9.22       2.48
O      12.56       7.45       1.12
O      11.89      11.68       1.39
O       9.97      10.06       3.77
O      11.85      11.86      29.87
O       9.79      10.03      27.95
O       9.25      10.96      31.80
O      11.41       9.64      31.79
O       8.77       5.95       2.53
O      10.64       5.55       1.28
O       5.58       8.70      29.57
O       5.34      10.73      30.59
O       8.77       6.03      29.20
O      10.54       5.55      30.54
O       5.71       8.60       2.22
O       5.43      10.65       1.26
O       6.27       6.16       1.87
O       8.15       8.27       3.74
O       6.33       6.26      30.33
O       7.99       8.20      27.93
O       8.44       6.68      31.93
O       7.15       8.86      31.93
O       9.79       8.35       1.26
O       7.88      10.08      29.86
O       8.05      10.13       1.89
O       9.68       8.34      30.39
