312

Zn       1.45       7.62       4.64
Zn      16.15       9.98       4.64
Zn       7.35      16.42       6.80
Zn      10.25       1.18       6.80
Zn       1.18       7.35      16.09
Zn      16.42      10.25      16.09
Zn       9.98       1.45      18.25
Zn       7.62      16.15      18.25
H      17.02       6.31      11.24
H       0.58      11.29      11.24
H       9.38      15.12       0.20
H       8.22       2.49       0.20
H       2.49       9.38      22.69
H      15.12       8.22      22.69
H      11.29      17.02      11.65
H       6.31       0.58      11.65
H      13.79       7.92       5.11
H       3.81       9.68       5.11
H      12.61      16.72       6.33
H       4.99       0.88       6.33
H       0.88      12.61      16.56
H      16.72       4.99      16.56
H       9.68      13.79      17.78
H       7.92       3.81      17.78
H      11.92       5.11       6.13
H       5.68      12.50       6.13
H      14.48      13.91       5.32
H       3.12       3.69       5.32
H       3.69      14.48      17.58
H      13.91       3.12      17.58
H      12.50      11.92      16.76
H       5.11       5.68      16.76
H       2.28       9.48       7.09
H      15.32       8.12       7.09
H       6.52       0.68       4.36
H      11.08      16.92       4.36
H      16.92       6.52      18.54
H       0.68      11.08      18.54
H       8.12       2.28      15.80
H       9.48      15.32      15.80
H      14.64       1.57       5.99
H       2.96      16.03       5.99
H      11.76      10.37       5.46
H       5.84       7.23       5.46
H       7.23      11.76      17.44
H      10.37       5.84      17.44
H      16.03      14.64      16.90
H       1.57       2.96      16.90
H       3.02       8.30      13.94
H      14.58       9.31      13.94
H       5.78      17.10      20.40
H      11.82       0.51      20.40
H       0.51       5.78       2.49
H      17.10      11.82       2.49
H       9.31       3.02       8.95
H       8.30      14.58       8.95
H       0.49       5.76       6.81
H      17.11      11.84       6.81
H       8.31      14.56       4.64
H       9.29       3.04       4.64
H       3.04       8.31      18.25
H      14.56       9.29      18.25
H      11.84       0.49      16.09
H       5.76      17.11      16.09
H      16.99       6.33      13.74
H       0.61      11.27      13.74
H       9.41      15.13      20.59
H       8.19       2.47      20.59
H       2.47       9.41       2.30
H      15.13       8.19       2.30
H      11.27      16.99       9.15
H       6.33       0.61       9.15
H       3.23       8.35      11.45
H      14.37       9.25      11.45
H       5.57      17.15      22.89
H      12.03       0.45      22.89
H       0.45       5.57       0.00
H      17.15      12.03       0.00
H       9.25       3.23      11.45
H       8.35      14.37      11.45
H       2.30       9.39       9.57
H      15.30       8.21       9.57
H       6.50       0.59       1.88
H      11.10      17.01       1.88
H      17.01       6.50      21.02
H       0.59      11.10      21.02
H       8.21       2.30      13.32
H       9.39      15.30      13.32
H      16.71       4.34       5.06
H       0.89      13.27       5.06
H       9.69      13.14       6.39
H       7.91       4.46       6.39
H       4.46       9.69      16.50
H      13.14       7.91      16.50
H      13.27      16.71      17.84
H       4.34       0.89      17.84
H       0.46       5.48       9.28
H      17.14      12.12       9.28
H       8.34      14.28       2.16
H       9.26       3.32       2.16
H       3.32       8.34      20.73
H      14.28       9.26      20.73
H      12.12       0.46      13.61
H       5.48      17.14      13.61
C       1.33       7.35      11.12
C      16.27      10.25      11.12
C       7.47      16.16       0.32
C      10.13       1.45       0.32
C       1.45       7.47      22.57
C      16.16      10.13      22.57
C      10.25       1.33      11.77
C       7.35      16.27      11.77
C       1.37       7.43       9.65
C      16.24      10.17       9.65
C       7.44      16.23       1.80
C      10.17       1.37       1.80
C       1.37       7.44      21.10
C      16.23      10.17      21.10
C      10.17       1.37      13.24
C       7.43      16.24      13.24
C      16.03       6.91       4.80
C       1.57      10.70       4.80
C      10.37      15.71       6.64
C       7.23       1.89       6.64
C       1.89      10.37      16.25
C      15.71       7.23      16.25
C      10.70      16.03      18.09
C       6.91       1.57      18.09
C       0.25       6.76      11.80
C      17.35      10.84      11.80
C       8.55      15.56      22.54
C       9.05       2.04      22.54
C       2.04       8.55       0.35
C      15.56       9.05       0.35
C      10.84       0.25      11.10
C       6.76      17.35      11.10
C      15.13       5.80       5.20
C       2.47      11.80       5.20
C      11.27      14.60       6.25
C       6.33       3.00       6.25
C       3.00      11.27      16.64
C      14.60       6.33      16.64
C      11.80      15.13      17.70
C       5.80       2.47      17.70
C      12.97       4.95       5.89
C       4.63      12.66       5.89
C      13.43      13.75       5.55
C       4.17       3.86       5.55
C       3.86      13.43      17.34
C      13.75       4.17      17.34
C      12.66      12.97      17.00
C       4.95       4.63      17.00
C      13.76       6.03       5.49
C       3.85      11.57       5.49
C      12.65      14.83       5.95
C       4.95       2.77       5.95
C       2.77      12.65      16.94
C      14.83       4.95      16.94
C      11.57      13.76      17.40
C       6.03       3.85      17.40
C      13.50       3.66       5.99
C       4.10      13.94       5.99
C      12.90      12.46       5.46
C       4.70       5.14       5.46
C       5.14      12.90      17.44
C      12.46       4.70      17.44
C      13.94      13.50      16.90
C       3.66       4.10      16.90
C       1.87       8.62       7.61
C      15.73       8.98       7.61
C       6.93      17.42       3.83
C      10.67       0.18       3.83
C       0.18       6.93      19.06
C      17.42      10.67      19.06
C       8.98       1.87      15.28
C       8.62      15.73      15.28
C       2.25       7.87      13.29
C      15.35       9.73      13.29
C       6.55      16.67      21.04
C      11.05       0.93      21.04
C       0.93       6.55       1.85
C      16.67      11.05       1.85
C       9.73       2.25       9.60
C       7.87      15.35       9.60
C       0.87       6.54       7.46
C      16.73      11.06       7.46
C       7.93      15.34       3.98
C       9.67       2.26       3.98
C       2.26       7.93      18.91
C      15.34       9.67      18.91
C      11.06       0.87      15.43
C       6.54      16.73      15.43
C       0.22       6.77      13.19
C      17.38      10.83      13.19
C       8.58      15.57      21.15
C       9.02       2.03      21.15
C       2.03       8.58       1.74
C      15.57       9.02       1.74
C      10.83       0.22       9.71
C       6.77      17.38       9.71
C       2.35       7.91      11.91
C      15.25       9.69      11.91
C       6.45      16.71      22.43
C      11.15       0.89      22.43
C       0.89       6.45       0.46
C      16.71      11.15       0.46
C       9.69       2.35      10.98
C       7.91      15.25      10.98
C      14.87       3.42       5.68
C       2.73      14.18       5.68
C      11.53      12.22       5.77
C       6.07       5.38       5.77
C       5.38      11.53      17.12
C      12.22       6.07      17.12
C      14.18      14.87      17.22
C       3.42       2.73      17.22
C       1.90       8.55       9.00
C      15.71       9.05       9.00
C       6.91      17.35       2.44
C      10.70       0.25       2.44
C       0.25       6.91      20.45
C      17.35      10.70      20.45
C       9.05       1.90      13.89
C       8.55      15.71      13.89
C      15.66       4.50       5.30
C       1.94      13.10       5.30
C      10.74      13.30       6.15
C       6.86       4.30       6.15
C       4.30      10.74      16.74
C      13.30       6.86      16.74
C      13.10      15.66      17.60
C       4.50       1.94      17.60
C       0.85       6.40       8.84
C      16.75      11.20       8.84
C       7.95      15.20       2.60
C       9.66       2.40       2.60
C       2.40       7.95      20.29
C      15.20       9.66      20.29
C      11.20       0.85      14.05
C       6.40      16.75      14.05
C      12.61       2.53       6.38
C       4.99      15.07       6.38
C      13.79      11.33       5.06
C       3.81       6.27       5.06
C       6.27      13.79      17.83
C      11.33       3.81      17.83
C      15.07      12.61      16.51
C       2.53       4.99      16.51
N       1.36       7.64       6.85
N      16.25       9.96       6.85
N       7.44      16.44       4.60
N      10.16       1.16       4.60
N       1.16       7.44      18.30
N      16.44      10.16      18.30
N       9.96       1.36      16.04
N       7.64      16.25      16.04
N       1.19       7.33      13.93
N      16.41      10.27      13.93
N       7.61      16.13      20.41
N       9.99       1.47      20.41
N       1.47       7.61       2.48
N      16.13       9.99       2.48
N      10.27       1.19       8.97
N       7.33      16.41       8.97
O      17.26       6.66       4.62
O       0.34      10.94       4.62
O       9.14      15.46       6.83
O       8.46       2.14       6.83
O       2.14       9.14      16.07
O      15.46       8.46      16.07
O      10.94      17.26      18.27
O       6.66       0.34      18.27
O      13.14       7.24       5.43
O       4.46      10.36       5.43
O      13.26      16.04       6.01
O       4.34       1.56       6.01
O       1.56      13.26      16.88
O      16.04       4.34      16.88
O      10.36      13.14      17.46
O       7.24       4.46      17.46
O      15.41       2.18       5.73
O       2.19      15.42       5.73
O      10.99      10.98       5.71
O       6.61       6.62       5.71
O       6.62      10.99      17.18
O      10.98       6.61      17.18
O      15.42      15.41      17.16
O       2.18       2.19      17.16
O      15.50       8.08       4.67
O       2.10       9.53       4.67
O      10.90      16.88       6.78
O       6.70       0.73       6.78
O       0.73      10.90      16.12
O      16.88       6.70      16.12
O       9.53      15.50      18.22
O       8.08       2.10      18.22
O      11.39       2.81       6.68
O       6.21      14.79       6.68
O      15.01      11.61       4.76
O       2.59       5.99       4.76
O       5.99      15.01      18.13
O      11.61       2.59      18.13
O      14.79      11.39      16.21
O       2.81       6.21      16.21
O      13.08       1.34       6.38
O       4.53      16.26       6.38
O      13.33      10.14       5.07
O       4.28       7.46       5.07
O       7.46      13.33      17.83
O      10.14       4.28      17.83
O      16.26      13.08      16.51
O       1.34       4.53      16.51
