94

Zn       9.59       8.13       8.32
Zn       6.57       8.07       8.29
H       1.79       7.56      10.29
H      14.38       6.41       9.52
H       4.58       8.03       4.01
H      11.72       4.63      10.66
H       4.45       7.17      12.36
H      11.47      11.91       6.45
H       5.45      11.42       6.01
H      11.67       4.15       6.22
H      14.34       9.91       6.97
H       9.66       8.22       4.03
H       6.99       6.09      12.12
H      10.20      14.52      10.00
H       6.86       1.66      10.71
H      10.13      12.06       9.59
H       6.96       4.14      10.47
H       1.80       8.62       6.10
C       8.25      10.65       8.30
C       9.05       1.88       8.12
C       8.28      14.89       9.09
C       8.22       1.28       9.09
C       2.30       8.38       7.04
C      13.87       7.21       8.98
C       3.69       8.31       7.07
C      12.48       7.30       9.05
C       3.68       7.66       9.28
C      12.45       9.09       7.60
C       2.29       7.76       9.34
C       8.43       5.57       8.72
C      13.85       9.12       7.54
C       1.56       8.11       8.20
C      14.59       8.15       8.23
C       7.94       7.42       5.85
C       7.69       8.31      10.83
C       7.98       6.94       4.42
C       7.76       8.09      12.32
C       7.10       5.98       3.89
C       8.29       9.06      13.19
C       7.06       5.77       2.50
C       9.30      12.69       9.30
C       8.50       8.74      14.54
C       7.90       6.51       1.63
C       8.17       7.45      15.03
C       8.91       7.32       2.22
C       7.59       6.53      14.14
C       8.93       7.55       3.59
C       7.39       6.83      12.80
C       9.33      14.06       9.52
C       7.51       2.11       9.96
C       4.37       8.68       5.77
C       7.58       3.49       9.84
C      11.80       6.43      10.08
C       4.33       7.01      10.48
C      11.72      10.06       6.70
C       5.89      12.29       7.64
C       9.94       3.88       6.88
C       8.20      12.11       8.64
C       8.40       4.08       8.87
C       7.10      12.91       8.29
C       9.16       3.27       8.01
C       7.15      14.29       8.51
N       7.84       6.61       0.23
N       8.25       7.11      16.40
N       4.39       7.96       8.17
N      11.76       8.21       8.35
Cl       8.65      10.63      12.58
Cl       6.13       5.02       4.92
Cl       9.06       9.97      15.60
Cl       6.01       4.56       1.87
Cl      10.09       8.10       1.24
Cl       7.16       4.96      14.73
Cl       5.84      15.27       7.96
Cl       9.86       0.88       6.95
O       9.42      10.13       8.24
O       4.13       7.75       4.84
O      11.15       6.88      10.99
O      12.17       5.13       9.94
O       4.92       5.95      10.41
O       4.01       7.65      11.63
O      11.08       9.71       5.73
O      11.97      11.33       7.06
O       4.85      12.04       8.23
O       6.12      12.07       6.33
O       9.42       4.42       5.92
O       7.31       6.16       8.73
O      11.28       3.75       7.03
O       7.16      10.04       8.11
O       9.58       6.11       8.59
O       9.05       7.68       6.39
O       6.54       8.37      10.30
O       6.78       7.58       6.35
O       8.81       8.36      10.25
O       4.93       9.74       5.55
