79

Al       0.98      17.64      10.22
H       3.01      15.55      13.86
H       2.98      13.46      15.18
H       2.46      32.96      17.09
H       3.16      19.80       6.42
H       2.87      19.73       3.98
H       3.82      19.34       2.17
H       4.79      31.18      20.17
H       3.69      31.54      18.26
H       2.71      15.53       6.60
H       2.67      15.43       4.14
H       2.41      27.60      20.10
H       3.06      19.82      13.98
H       2.95      21.99      15.15
H       4.20      23.64      15.66
H       4.41      25.69      16.97
H       3.42      27.25      18.28
H       2.91      21.85      10.19
H       3.05      24.02      11.35
H       2.05      27.76      14.02
H       2.87      13.27      10.22
H       2.63      11.19      11.53
H       3.81       9.82      12.74
H       4.70      31.17      13.87
H       3.40      29.39      14.55
C       2.96      15.83      11.20
C       2.97      19.40      11.28
C       2.96      17.68       8.16
C       2.95      14.58      13.36
C       2.90      13.41      14.09
C       2.09      10.73      15.49
C       2.06       9.50      16.14
C       3.03      18.84       5.92
C       2.88      18.80       4.53
C       3.24      18.59       1.63
C       3.22      18.66       0.24
C       2.94      14.54      11.96
C       2.77      12.16      13.46
C       2.69      10.89      14.23
C       3.58      31.89      15.58
C       3.55      30.61      16.32
C       3.61      30.60      17.72
C       2.77      16.45       6.01
C       2.72      16.40       4.62
C       1.99      16.56       1.59
C       1.95      16.63       0.20
C       3.03      20.74      13.41
C       2.98      21.97      14.06
C       3.69      24.54      15.31
C       3.81      25.70      16.06
C       2.93      17.67       6.67
C       2.73      17.57       3.85
C       2.63      17.55       2.37
C       3.59      29.39      19.92
C       3.56      29.40      18.44
C       3.46      28.19      17.73
C       2.94      21.89      11.28
C       2.99      23.11      11.94
C       2.45      25.69      13.64
C       2.55      26.86      14.38
C       2.87      13.31      11.31
C       2.75      12.14      12.06
C       3.27       9.72      13.68
C       3.25       8.49      14.32
C       2.98      20.69      12.01
C       2.98      23.19      13.34
C       3.02      24.48      14.07
C       3.25      26.90      15.60
C       3.39      28.17      16.33
C       3.44      29.39      15.64
Cl       1.55      25.85      12.15
Cl       1.29      12.02      16.34
Cl       1.14      15.20       2.26
O       3.90      18.32       8.75
O       3.90      16.02      10.36
O       3.89      18.56      11.53
O       2.04      17.03       8.75
O       2.03      19.22      10.43
O       2.04      16.66      11.48
