46

Zn       6.68       5.96       8.02
Zn       3.95       5.96       8.02
H       6.51       7.76      14.86
H       7.46       6.28       1.17
H       3.16       6.09      14.86
H       7.46       6.28      14.86
H       3.98       7.66      14.86
H       6.51       7.76       1.17
H       3.98       7.66       1.17
H       6.28       4.02       1.17
H       4.52       3.94       1.17
H       6.28       4.02      14.86
H       4.52       3.94      14.86
H       3.16       6.09       1.17
C       5.32       8.57       8.02
C       5.32       5.95       5.42
C       5.32       5.95      10.61
C       5.32      11.24       8.02
C       5.32      10.01       8.02
C       0.68       5.96       8.02
C       9.95       5.96       8.02
C       5.32       3.34       8.02
C       6.54       6.74       0.77
C       4.03       6.63       0.77
C       6.54       6.74      15.26
C       5.32       5.94      12.06
C       4.03       6.63      15.26
C       5.32       0.68       8.02
C       5.32       1.90       8.02
C       5.32       5.94       3.98
C       5.32       5.96       1.31
C       5.32       5.96      14.72
C       5.38       4.50      15.26
C       5.38       4.50       0.77
C       5.32       5.95      13.27
C       5.32       5.95       2.76
N       1.85       5.96       8.02
N       8.79       5.96       8.02
O       6.46       8.00       8.02
O       4.17       8.00       8.02
O       6.46       5.95       5.99
O       4.18       5.95       5.99
O       6.46       5.95      10.04
O       4.18       5.95      10.04
O       6.46       3.91       8.02
O       4.17       3.91       8.02
