108

Zn      10.90       9.38       8.55
Zn      11.19       7.63      11.16
Zn      13.68       8.93      10.11
Zn      12.63       6.58       8.33
H      10.05       9.82       4.49
H      15.23       8.71      14.13
H       9.03       9.16       0.10
H      12.19       6.25       1.77
H      15.89       9.12      16.47
H      12.46       6.27       4.25
H      15.89       8.92      18.61
H       9.76       9.81       2.03
H      12.08      11.04      17.14
H      11.40       3.84      12.89
H      14.79      14.02      13.01
H      10.54       2.80       8.82
H      12.33      12.69       6.87
H       9.25       1.75       7.74
H      12.80      15.03       6.18
H       7.53       9.14      12.58
H      20.46       9.13      13.20
H       6.53       8.19       8.53
H      16.50       6.15       6.54
H       5.22       7.36       7.33
H       3.57       6.37       5.82
H      16.42       7.91      11.02
H      14.25      11.93      12.43
H      15.72      10.40      11.39
H      16.52      11.99      11.55
H      15.83      11.48       9.98
H      16.93       8.75      12.95
H      17.39      10.71      13.84
H      18.75      10.91      12.72
H      18.99      10.10      14.29
H      10.71      11.35      15.45
H      10.17      12.09      13.40
H      10.28      10.39      12.85
H      11.71      11.45      12.76
C      11.43       4.81      10.37
C      12.94      11.43       9.01
C       8.60       8.72      10.18
C      15.37       6.94       8.75
C      12.96       9.08      12.94
C      11.40       8.03       6.00
C      11.26       8.03       4.52
C      10.51       9.03       3.88
C      10.34       9.02       2.50
C      10.93       8.00       1.71
C      11.71       7.03       2.36
C      11.87       7.03       3.75
C      14.91       9.45      16.12
C      14.56       9.24      14.80
C      12.39      10.31      15.13
C      12.77      10.51      16.47
C      13.99      10.07      17.00
C      10.72       7.91       0.28
C      14.25      10.24      18.42
C      13.29       9.61      14.29
C      10.64       1.86      12.56
C      11.00       3.44      10.79
C      12.88      13.36       7.54
C      13.13      14.68       7.15
C      13.75      15.54       8.03
C      14.15      15.12       9.31
C      13.95      13.75       9.70
C      10.08       1.25      10.27
C      14.81      15.70      11.64
C      14.61      14.34      11.99
C      14.31      13.38      11.05
C      10.53       2.52       9.87
C      11.04       3.11      12.16
C      13.29      12.88       8.78
C       5.43       8.94      12.17
C       7.14       8.71      10.49
C      17.25       6.57       7.21
C      18.58       6.70       6.81
C       4.19       7.27       7.67
C      19.16       7.70       8.96
C      17.79       7.56       9.39
C       4.82       8.25       9.88
C      19.76       8.61      11.21
C      18.37       8.55      11.58
C      17.46       8.00      10.70
C       6.19       8.39       9.54
C       6.76       8.95      11.83
C      16.83       7.00       8.47
C      15.69      11.44      11.06
C      18.29      10.23      13.45
C      10.82      11.20      13.36
N      10.73       1.58      14.01
N      14.38      12.02      11.42
N      17.92       8.95      12.84
N      11.19      10.84      14.72
O      12.04       8.09       9.46
O      11.78       4.98       9.16
O      11.69      11.17       9.05
O       9.34       8.29      11.13
O      14.93       7.46       9.84
O      11.80       8.58      12.77
O      11.86       6.97       6.54
O      13.90       9.10      12.06
O      11.04       9.10       6.61
O       9.00       9.14       9.04
O      14.57       6.39       7.90
O      11.40       5.69      11.30
O      13.88      10.57       9.03
O      14.56      15.61      14.50
O      11.60       2.20      14.65
