108

Zn       8.84       6.96       9.41
Zn       5.77       6.94       9.81
H       1.31       5.11      11.65
H       5.42      11.09      11.01
H       4.36       0.55      11.21
H      10.14      13.34       8.17
H       7.76      10.56       4.08
H       5.99      10.59       4.01
H       6.84      11.41       5.33
H       5.89       9.27       6.17
H       7.63       9.28       6.28
H       7.00       3.47      14.88
H       6.33       4.09      13.36
H      13.30       8.83       7.54
H       7.45       2.72      13.33
H       8.63       4.80      12.63
H       9.31       4.18      14.13
H      10.76       3.76       9.60
H      12.34       3.63      10.41
H      10.84       3.24      11.28
H      11.59       5.51      12.00
H      10.07       5.59      11.14
H       2.23      10.31       8.84
H       3.80      10.19       9.67
H       6.90       4.47       2.99
H       3.73      10.75       7.99
H       4.55       8.41       8.10
H       3.04       8.48       7.22
H      11.72       8.01       5.52
H      10.27       7.05       5.95
H      10.09       8.66       5.24
H       9.65       8.77       7.69
H      11.07       9.72       7.27
H       4.41       6.99      13.14
H       2.94       6.12      13.65
H       7.59       9.38      16.21
H       4.55       5.43      13.97
H       3.50       4.27      12.02
H       4.94       5.15      11.51
H       6.72       8.76       2.81
H       8.44       5.16      16.37
H       5.40       2.72      10.60
H       9.03      11.16       8.69
H       9.07       2.80       8.37
C       7.16       9.51       9.68
C       6.20       2.18      10.09
C       8.31      13.11       9.32
C       6.16       0.77      10.04
C       1.71       5.81      10.92
C      12.90       8.12       8.27
C       3.07       6.00      10.88
C      11.53       7.94       8.31
C       2.88       7.59       9.15
C      11.74       6.36      10.05
C       1.45       7.43       9.14
C       7.24       4.38       9.60
C      13.16       6.51      10.05
C       7.11       6.80       7.04
C       7.73       7.07      12.16
C       6.95       5.51       4.88
C       7.69       8.35      14.32
C       6.88       5.43       3.50
C       7.74       8.43      15.71
C       6.82       6.62       2.75
C       8.00       7.27      16.45
C       6.78       7.86       3.41
C       7.23       2.89       9.51
C       8.23       6.05      15.78
C       6.84       7.94       4.81
C       8.18       5.97      14.39
C       6.94       6.74       5.54
C       7.88       7.13      13.65
C       8.03       7.33      17.91
C       6.81       6.56       1.29
C       6.80       9.26       5.55
C       6.85      10.52       4.69
C       8.41       4.64      13.70
C       7.22      10.99       9.81
C       7.23       3.67      13.83
C      11.13       5.37      11.01
C      11.29       3.92      10.54
C       3.49       8.61       8.22
C       3.29      10.05       8.71
C      10.68       8.69       7.33
C      10.70       8.06       5.93
C       3.92       5.28      11.89
C       3.95       6.00      13.24
C       6.24      13.05      10.65
C       8.25       0.84       8.72
C       6.20      11.68      10.54
C       8.27       2.21       8.83
C       8.25      11.70       9.23
N       6.64       7.71       0.60
N       8.20       6.18      18.60
N       7.87       8.55      18.50
N       6.99       5.34       0.70
N      10.96       7.06       9.22
N       3.65       6.88       9.98
Cl       7.04       4.04       5.81
Cl       7.35       9.79      13.40
O       8.20       8.92       9.24
O       6.10       4.95       9.62
O       6.07       8.94      10.00
O       8.37       4.96       9.66
O       8.30       6.67       7.45
O       6.57       6.79      11.74
O       6.07       7.01       7.73
O       8.77       7.29      11.46
