160

Zn       6.82       8.69      14.37
Zn       9.64       8.76      14.39
Zn       9.59       8.52      25.30
Zn       6.76       8.46      25.28
H      11.76       7.57      16.02
H      11.76      10.13      12.76
H       4.67       7.45      16.05
H       4.72      10.08      12.84
H       6.10       4.51      13.53
H      10.33       4.57      14.27
H       5.89      13.00      15.41
H      10.13      12.90      14.61
H       6.20       9.61      22.25
H       6.42       9.67      17.30
H       9.94       6.75      18.59
H       9.88       6.74      21.08
H      10.21       8.71       0.83
H       6.00       9.56       0.80
H      10.27       8.88      10.18
H       6.03       9.55      10.26
H       4.64       7.58      23.32
H       4.64       9.59      26.96
H      11.73       7.03      23.92
H      11.71      10.18      26.62
H      10.34       4.34      25.17
H       6.11       4.23      25.93
H      10.26      12.71      24.88
H       5.99      12.65      24.35
H       5.23      12.80      20.87
H       5.51      11.08      16.58
C       8.21       6.19      13.86
C       8.35       8.12      16.90
C       8.02      11.29      15.02
C       8.22       9.29      11.87
C       8.22       5.93      25.65
C       8.22       8.04      22.72
C       8.16      11.04      24.77
C       8.09       8.87      27.85
C      12.36       8.13      15.31
C      13.75       8.13      15.35
C      14.50       8.90      14.43
C      13.75       9.64      13.48
C      12.36       9.58      13.49
C      15.91       8.91      14.45
C       0.55       8.90      14.47
C       1.96       8.87      14.48
C       2.69       8.08      15.40
C       4.08       8.05      15.35
C       4.11       9.53      13.55
C       2.72       9.61      13.54
C       8.21       4.69      13.90
C       7.02       3.97      13.74
C       7.02       2.59      13.89
C       8.20       1.86      14.19
C       9.40       2.63      14.30
C       9.41       4.00      14.16
C       8.19       0.47      14.39
C       8.02      17.02      14.58
C       8.02      15.62      14.77
C       6.84      14.90      15.08
C       6.83      13.51      15.20
C       8.02      12.79      15.01
C       9.21      13.47      14.75
C       9.21      14.85      14.63
C       8.19       8.03      21.22
C       7.22       8.81      20.51
C       9.14       7.31      20.52
C       6.25       9.62      21.16
C       5.36      10.41      20.46
C       8.26       8.06      18.39
C       9.18       7.32      19.12
C       7.27       8.83      19.08
C       6.37       9.67      18.39
C       5.43      10.45      19.03
C       8.11       9.17       0.67
C       9.28       8.87       1.38
C       9.25       8.78       2.76
C       8.05       8.98       3.50
C       6.88       9.26       2.74
C       6.91       9.35       1.36
C       8.04       8.95       4.91
C       8.04       8.97       6.13
C       8.07       9.04       7.54
C       9.29       8.90       8.27
C       9.33       9.01       9.65
C       8.16       9.25      10.37
C       6.94       9.38       9.70
C       6.90       9.28       8.32
C       4.04       8.05      24.10
C       2.65       8.13      24.02
C       1.91       8.75      25.05
C       2.65       9.31      26.11
C       4.04       9.19      26.14
C       0.50       8.79      25.03
C      15.86       8.79      25.07
C      14.45       8.74      25.13
C      13.71       7.79      24.38
C      12.32       7.75      24.48
C      12.31       9.52      26.00
C      13.70       9.61      25.95
C       8.23       4.43      25.56
C       9.42       3.76      25.27
C       9.41       2.39      25.08
C       8.23       1.62      25.19
C       7.04       2.33      25.52
C       7.03       3.71      25.70
C       8.23       0.22      24.97
C       8.05      16.77      24.79
C       8.08      15.37      24.66
C       9.30      14.64      24.76
C       9.32      13.25      24.76
C       8.13      12.53      24.64
C       6.91      13.21      24.47
C       6.90      14.60      24.48
C       4.35      11.14      21.31
C       4.45      11.27      18.25
Br      14.60      10.70      12.18
Br      14.60       7.09      16.67
Br       1.90      10.72      12.27
Br       1.82       7.06      16.72
Br      11.04       1.75      14.69
Br       5.38       1.66      13.69
Br      10.85      15.72      14.23
Br       5.21      15.83      15.33
Br       5.23       9.52       3.63
Br      10.86       8.35       3.66
Br       5.23       9.45       7.45
Br      10.90       8.55       7.35
Br       1.80      10.19      27.55
Br       1.80       7.37      22.53
Br      14.54      10.93      27.00
Br      14.57       6.56      23.25
Br       5.41       1.38      25.70
Br      11.05       1.54      24.64
Br       5.24      15.49      24.26
Br      10.94      15.56      24.94
N      11.69       8.85      14.39
N       4.76       8.75      14.43
N       4.70       8.56      25.15
N      11.65       8.60      25.28
O       7.09       6.77      13.68
O       9.33       6.76      14.05
O       9.50       8.34      16.41
O       7.27       7.99      16.24
O       9.13      10.73      14.77
O       6.92      10.67      15.22
O       7.12       9.45      12.51
O       9.37       9.13      12.40
O       9.35       6.50      25.48
O       7.11       6.51      25.85
O       7.12       7.85      23.33
O       9.36       8.24      23.25
O       7.06      10.41      24.63
O       9.29      10.52      25.04
O       9.23       8.73      27.31
O       6.98       9.03      27.24
O       4.53      12.48      21.47
O       3.49      10.56      21.94
O       4.65      11.43      16.91
O       3.47      11.78      18.78
