132

Zn       6.72       5.99      13.91
Zn       4.06       6.04      14.06
H       7.29       6.45       9.60
H       3.41       5.26      18.34
H       7.62       6.06      18.14
H       3.06       5.84       9.87
H       7.73       6.12      20.65
H       2.93       5.62       7.37
H       5.17       9.22      24.28
H       5.16       2.33       3.72
H       5.25       9.49      26.74
H       5.08       2.04       1.26
H       4.48       8.76       0.64
H       6.25       2.82      27.33
H       3.35      10.29      14.14
H       7.50       1.74      13.78
H       3.22       1.81      13.95
H       7.64      10.22      13.97
H       1.91       4.69      15.60
H       8.87       7.37      12.40
H       1.96       7.41      12.48
H       8.82       4.63      15.50
H       9.36       6.52       6.79
H       8.62       7.12       8.29
H       8.23       8.33       5.50
H       7.44       8.91       6.96
H       9.69       9.48       7.97
H       9.49      10.30       6.41
H       1.02       8.85       6.53
H       3.18       3.20      21.15
H       2.23       3.94      19.83
H       1.67       4.40      22.80
H      10.17       4.98      21.45
H       9.68       2.55      20.81
H       9.12       2.94      22.44
H       1.13       2.01      22.22
H       4.78       0.22       3.14
H       5.31      10.40       1.60
H       6.85      10.03       4.23
H       7.16       9.11       2.75
H       7.55       0.27       1.52
H       8.78      11.01       2.93
H       7.28       1.19       3.02
H       6.45      11.35      24.81
H       5.87       1.10      26.38
H       8.59       1.22      24.95
H       8.26       1.99      26.51
H       7.93      10.71      27.53
H       9.57      10.78      26.87
H       8.28       9.94      25.97
C       5.47       8.62      14.15
C       5.38       3.40      13.79
C       5.29       6.23      11.35
C       5.42       5.72      16.61
C       4.88       7.02       4.94
C       5.78       4.57      23.03
C       5.03       4.52       5.13
C       5.49       7.06      22.86
C       3.88       5.82       7.87
C       6.79       5.91      20.13
C       3.95       5.94       9.25
C       6.73       5.88      18.74
C       6.34       6.30       9.08
C       4.35       5.41      18.86
C       6.28       6.19       7.69
C       4.41       5.42      20.25
C       5.03       5.93       7.10
C       5.64       5.69      20.88
C       4.84       5.60       2.85
C       5.71       5.96      25.12
C       4.77       6.89       3.46
C       5.85       4.69      24.50
C       4.66       8.01       2.63
C       6.05       3.56      25.32
C       4.97       4.44       3.65
C       5.51       7.12      24.33
C       5.19       6.18       9.86
C       5.51       5.65      18.10
C       5.63       7.40      27.14
C       4.88       4.15       0.83
C       5.95       4.94      27.35
C       4.64       6.62       0.61
C       5.76       6.11      26.55
C       4.79       5.45       1.42
C       5.40       8.50      26.31
C       5.01       3.04       1.67
C       5.34       8.37      24.93
C       5.06       3.19       3.06
C       4.60       7.86       1.23
C       6.10       3.71      26.72
C       4.29      10.84      14.06
C       6.56       1.19      13.86
C       4.14       1.23      13.96
C       6.71      10.80      13.96
C       5.36       1.91      13.86
C       5.49      10.12      14.07
C       1.32       5.27      14.89
C       9.46       6.78      13.10
C       1.36       6.80      13.15
C       9.42       5.24      14.84
C       8.49       7.05       7.19
C       8.36       8.44       6.58
C       9.58       9.31       6.89
C       2.54       4.06      20.88
C       1.32       4.14      21.79
C      10.02       2.84      21.82
C       5.38      10.30       2.70
C       6.82      10.09       3.13
C       7.57       0.21       2.62
C       6.52       1.19      25.49
C       8.00       1.13      25.88
C       8.51      10.82      26.60
N       4.94       5.81       5.67
N       5.69       5.79      22.31
N       8.77       5.99      13.94
N       2.01       6.05      14.04
O       6.60       8.02      14.09
O       4.26       4.01      13.82
O       6.52       3.97      13.74
O       4.34       8.05      14.25
O       6.45       6.22      11.87
O       4.26       5.74      16.09
O       6.52       5.78      15.97
O       4.19       6.26      12.01
O       4.92       8.08       5.54
O       5.81       3.51      22.40
O       5.32       8.05      22.15
O       5.16       3.53       5.84
O       7.35       6.23       6.85
O       3.31       5.27      21.05
O       4.52       9.25       3.18
O       6.19       2.36      24.73
