120

Zr      -0.13      15.67       1.35
Zr       5.74       0.16      27.47
Zr       7.94       0.88       1.75
Zr      -2.25      14.84      26.96
Zr       3.50      14.94      27.56
Zr       2.24       0.84       1.17
H       5.31      12.73      27.50
H       2.97      -0.12      28.14
H      -0.81      -0.29      27.20
H       0.82      -0.11       3.41
H       0.70      14.76      27.90
H       8.73       3.34       2.54
H       2.44       2.58       3.10
H       3.39      12.95      25.54
H       4.93      13.68      25.41
H       0.44      15.34      26.23
H       4.90       1.75       0.92
H       2.50      15.64      25.32
H       4.79       1.24      25.13
H       1.33      13.93       2.88
H       3.70      17.48       2.70
H      -2.73      13.92      24.50
H       3.94       1.83      26.35
H       5.68       1.87       2.85
H       4.43      16.71       0.78
H       1.20      -1.22      28.66
H       8.11       2.79       3.90
H       0.21      14.56       3.83
H       6.92       9.01       0.36
H      -1.47       6.94      28.39
H      -0.02      16.30       8.35
H       7.12      16.44      12.05
H       5.00      16.36       8.29
H       0.32      -0.33      20.49
H      -1.76      -0.43      16.71
H       5.34      -0.26      20.39
H       5.29      -0.87      14.32
H       0.03      16.88      14.44
C       6.79      13.81       0.28
C      -1.65      11.88      28.50
C       7.39      16.54       4.11
C       7.82       4.55       0.45
C      -1.42       2.15      28.62
C      -2.15      -0.59      24.63
C       5.09      10.12       0.10
C       0.22       8.26      28.62
C      -0.39       7.00      28.54
C       0.36       5.82      28.64
C       5.24       7.69       0.09
C       5.84       8.95       0.20
C       7.17      16.31       8.17
C      -0.96      16.32       8.88
C      -0.97      16.37      10.29
C       7.13      16.39      10.96
C       5.92      16.39      10.26
C       5.93      16.35       8.85
C      -1.85      -0.27      20.58
C      -0.61      -0.32      19.91
C      -0.58      -0.37      18.51
C      -1.79      -0.38      17.79
C       6.31      -0.35      18.46
C       6.29      -0.28      19.86
C       3.19      16.73      13.15
C       1.77      16.72      13.18
C       1.12      16.89      14.41
C       2.13      -0.72      15.61
C       3.56      -0.71      15.58
C       4.21      -0.88      14.35
C       4.35      -0.54      16.73
C       5.16      -0.43      17.63
C       0.59      -0.45      17.72
C       1.39      -0.56      16.80
C       0.98      16.56      12.02
C       0.18      16.44      11.11
C       4.75      16.47      11.05
C       3.94      16.57      11.96
C      -1.04      10.57      28.49
C      -0.52       9.47      28.54
C       6.06       6.54       0.19
C       6.86       5.62       0.28
C      -0.83       3.47      28.59
C      -0.28       4.56      28.59
C       6.21      12.50       0.28
C       5.72      11.39       0.20
C      -1.90      -0.28      22.00
C      -1.99      -0.34      23.22
C       7.19      16.32       6.75
C       7.21      16.37       5.53
O       0.95      14.76       3.22
O       7.70      14.04       1.16
O       7.93      15.60       3.46
O      -1.50      12.62      27.51
O       7.34      -0.12       3.64
O       1.14      13.93       0.84
O       2.91      12.82      28.12
O       7.58      16.84       0.89
O       5.37      13.63      27.87
O       0.23      17.60       2.49
O       1.21      16.77       0.32
O      -0.25      14.83      26.72
O       1.42      15.00      28.61
O       5.22      15.98      26.94
O       3.77      -0.64      28.34
O       0.18       1.60       0.71
O      -1.53      -0.77      27.64
O       6.12       1.82       1.99
O       8.47       4.51       1.52
O       4.45       1.96      28.18
O       3.26      17.16       1.90
O      -2.22       1.87      27.66
O       8.70       2.54       3.17
O       2.58       1.62       3.01
O       4.26       1.46       0.18
O       2.40       3.17       0.83
O       4.22       1.01      25.88
O      -3.07      13.64      25.37
O      -2.73       0.30      25.34
O      -2.00      16.09      25.03
O       3.85      13.81      25.61
O       2.20      15.81      26.23
