132

Zn       0.03      16.07       2.02
Zn       0.21      24.78      14.53
Zn      10.86      11.57      14.47
Zn       7.67      11.56      14.46
Zn       0.10       5.32       5.57
Zn       7.77      20.39       8.19
Zn       0.11       7.15       8.22
Zn      -7.43      20.35       8.20
H       4.41       5.11       3.34
H       6.13      14.45      11.33
H      -2.47      22.54      12.10
H       3.97       3.08       1.40
H      -4.23      21.55      10.65
H       2.74      10.39       9.89
H       1.84       9.90      11.34
H       4.54      11.41      11.34
H       3.64      10.92      12.80
H      13.60      10.46      11.38
H      15.36       9.45       9.95
H       3.64      19.05       7.10
H       4.14      20.58      10.77
H       5.29      20.66      12.13
H       2.35      21.61      12.23
H      -6.67      17.64       3.33
H       3.51      21.69      13.58
H      -1.14      12.75       4.63
H       2.45       8.45       2.81
H       0.96       7.90       2.00
H       2.48      10.52       1.38
H       0.99       9.98       0.57
H       2.73      16.46       5.68
H      -4.30      16.29       4.14
H      -3.85      18.32       6.09
H       6.79       3.76       4.16
H      14.00       2.73       1.33
H      15.76       3.78       2.73
H       4.54      17.51       7.09
H      -1.74       9.77       6.75
H       1.84      18.00       5.66
H      11.41      14.95      12.08
H      11.43      16.95      10.60
H       6.17      17.54      11.30
H       6.15      16.50       9.86
H       6.13      15.49      12.78
C      -2.33      25.09      13.07
C      14.91       3.28       3.20
C      14.85       3.26       4.61
C       2.66      17.40       2.13
C       4.64      18.60       5.17
C       3.97      18.21       6.47
C       2.84      17.54       5.57
C       8.09      15.41      11.74
C       9.26      14.81      12.19
C      10.47      15.40      11.75
C      10.48      16.52      10.92
C      -5.69      18.11       3.50
C       9.29      17.13      10.48
C       8.10      16.54      10.91
C       6.59      16.63      10.85
C       0.05      13.13       2.18
C       6.57      15.35      11.78
C       4.63       9.23      11.76
C      -3.38      24.49      12.20
C      -3.31      23.15      11.78
C      -4.30      22.59      10.96
C      -5.42      23.34      10.53
C      -4.40      17.37       3.98
C       3.64       8.67      10.95
C       2.84       9.96      10.89
C       3.96      10.59      11.80
C       3.88      23.20      12.00
C       9.26      13.62      13.08
C      12.82       8.58      12.10
C      13.70       9.38      11.33
C      14.69       8.81      10.53
C      14.86       7.41      10.44
C       4.87      22.63      11.19
C      -4.13      18.49       5.04
C       4.50      21.21      11.59
C       3.39      21.85      12.50
C       0.66      10.72       2.63
C       0.04      11.91       3.03
C      -0.62      11.87       4.27
C      11.78       9.19      12.97
C      -0.66      10.71       5.06
C      -0.01       9.52       4.65
C       0.63       9.57       3.42
C       1.47       8.77       2.44
C       5.81       3.30       3.99
C       1.49      10.07       1.54
C       9.32      18.33       9.61
C       0.08       8.28       5.49
C      15.90       3.88       5.45
C      -6.47      22.73       9.68
C      15.92       6.81       9.60
C       6.60       1.58       2.06
C       2.64       3.83       5.45
C       4.25       2.92       2.45
C       4.51       4.04       3.51
C       5.55       2.19       2.91
C       3.69       3.23       4.59
C      -1.51      10.76       6.29
C       3.65      18.01       4.38
C       3.71      18.02       2.98
C      13.93       2.69       2.41
O       9.19       0.04       0.05
O       1.63       7.48       9.41
O       6.75      21.53       9.43
O       6.65      10.35      13.31
O      -6.35      19.67       6.71
O      16.81       7.59       9.11
O       1.70       4.46       4.84
O      16.91       4.40       4.85
O      -6.29      21.54       9.28
O       8.18      18.76       9.21
O       0.23       8.45       6.74
O      -0.21      14.25       2.75
O       1.68      16.85       2.74
O       0.33      12.94       0.95
O      10.39      13.19      13.48
O       1.78      24.39      13.43
O       6.39       1.53       0.80
O      11.87      10.45      13.20
O      -1.47      17.15       2.67
O      -1.96      11.79       6.76
O       8.11      13.12      13.36
O      -1.40      24.33      13.49
O      11.94       1.48       0.86
O       0.10       5.31       7.53
O      10.46      18.83       9.34
O       0.02       7.17       4.86
O       6.60      19.84       6.72
