244

Zn       7.56       9.02      15.51
Zn      26.98      10.82      18.23
Zn       9.01      11.85      15.66
Zn      25.38      11.70      15.66
Zn      18.39       7.26       8.83
Zn      16.84       4.42       8.65
Zn      18.59       5.47       6.17
Zn      20.01       4.49       8.90
Zn      16.11      16.31      22.41
Zn      17.68      15.44      25.09
Zn      15.89      18.10      25.06
Zn      14.49      15.19      24.95
Zn      17.71       5.01      32.01
Zn      14.47       4.91      31.78
Zn      24.80      19.86      31.81
Zn      18.29      17.58       1.93
H      20.74       9.32      11.39
H       5.14       6.93      13.04
H      13.67      14.91      19.57
H       9.72      12.33      21.03
H      13.30       5.63      11.04
H      19.24      14.80      19.53
H      16.25      19.74      19.54
H      29.08      18.36      11.17
H      14.40       2.62       1.62
H      13.88       2.74       6.53
H      18.30      14.19       4.81
H       4.62       2.73       1.33
H      11.58       3.66      29.29
H      20.41      16.66      27.70
H      14.02       8.60      29.35
H      21.21       3.82      29.46
H      12.38      12.49      11.83
H      24.82      10.24      21.48
H       9.01       8.42      22.36
H      23.43      14.42      11.63
H      20.54       8.16       2.20
H       5.52       3.78       8.13
H      19.89      10.96      26.22
H      29.01      15.52      25.86
C       7.59       7.86      18.19
C       9.81      12.43      18.43
C      10.12       9.54      14.19
C      26.91      13.79      14.27
C      24.62       9.31      14.11
C      24.40      12.13      18.38
C      15.78       6.74      10.12
C      16.09       3.94       5.85
C      18.53       8.41       6.14
C      21.15       4.04       6.24
C      20.80       6.90      10.43
C      18.39       2.39      10.12
C      18.77      15.07      22.37
C      18.35      17.85      26.64
C      15.96      19.27      22.36
C      13.31      17.51      26.33
C      13.68      14.69      22.16
C      16.14      13.30      26.43
C      16.10       7.05      30.58
C      22.32      20.17      30.24
C      27.44      20.34      30.60
C      18.36      14.65       1.98
C      12.16       1.47       2.30
C       7.04       1.28       1.93
C      23.62       8.76      13.14
C      21.83       7.48      11.34
C      22.49       9.44      12.65
C      22.98       6.81      11.80
C      21.62       8.80      11.77
C      23.85       7.45      12.68
C      10.80      13.08      19.34
C      12.63      14.11      21.26
C      11.92      13.83      18.93
C      11.50      13.38      21.67
C      12.80      14.33      19.88
C      10.61      12.88      20.72
C      12.45       9.67      13.04
C      13.52       6.66      11.32
C      11.27       9.03      13.42
C      14.69       7.30      10.94
C      12.72       7.52      12.09
C      13.28       8.81      12.28
C      23.24      12.85      20.61
C      20.01      14.45      20.22
C      23.36      12.75      19.22
C      19.90      14.53      21.59
C      21.24      13.85      19.86
C      22.03      13.49      20.97
C       7.39       6.56      20.44
C       7.53       2.95      20.19
C       7.52       6.66      19.05
C       7.38       2.85      21.56
C       7.53       4.30      19.79
C       7.38       5.21      20.87
C      25.78      15.78      13.02
C      28.05      18.09      11.40
C      26.86      15.04      13.48
C      26.96      18.83      10.95
C      27.61      16.99      12.16
C      26.20      16.90      12.26
C      15.13       3.31       4.88
C      13.14       2.08       3.26
C      15.28       3.26       3.48
C      13.00       2.12       4.67
C      14.29       2.66       2.71
C      13.98       2.72       5.44
C      18.49       9.71       3.89
C      18.34      13.32       4.16
C      18.47       9.60       5.28
C      18.36      13.42       2.78
C      18.37      11.97       4.56
C      18.43      11.06       3.47
C       3.78       2.75       5.84
C       4.83       2.50       2.37
C       2.64       3.45       5.44
C       5.96       1.81       2.78
C       4.04       2.83       3.49
C       4.59       2.39       4.72
C      19.32      18.49      27.60
C      21.32      19.50      29.35
C      19.25      19.82      28.07
C      21.37      18.16      28.90
C      20.24      20.30      28.92
C      20.38      17.69      28.05
C      17.28      11.45      27.86
C      15.04       8.95      29.24
C      16.19      12.11      27.29
C      16.13       8.30      29.79
C      15.47      10.11      28.55
C      16.87      10.30      28.58
C      30.70      17.35      27.69
C      29.62      20.43      29.28
C      31.82      18.00      27.18
C      28.51      19.77      29.78
C      30.42      19.54      28.52
C      29.89      18.22      28.46
S      11.19       7.39      12.87
S      14.82       8.94      11.52
S      22.01      13.45      18.38
S      21.27      13.91      22.46
S       7.64       5.12      18.28
S       7.22       4.38      22.37
S      28.38      15.71      13.00
S      25.42      18.20      11.44
S      18.36      11.14       6.07
S      18.41      11.88       1.96
S       2.55       3.65       3.72
S       6.07       1.55       4.49
S      14.68      11.34      27.65
S      17.66       9.07      29.49
S      31.89      19.67      27.65
S      28.42      18.08      29.35
S      13.00      11.30      13.46
S      24.40      12.34      21.87
S       7.11       7.88      21.58
S      24.05      15.51      13.34
S      18.49       8.40       2.69
S       4.23       2.23       7.47
S      18.98      11.96      27.86
S      30.29      15.62      27.56
Br      22.07      11.25      13.06
Br      23.50       5.06      11.25
Br      12.31      14.29      17.13
Br      11.03      13.03      23.48
Br      16.77       3.94       2.53
Br      11.54       1.38       5.64
Br      17.87      21.06      27.65
Br      22.69      16.90      29.41
O       7.44      10.82      16.26
O       7.44       7.66      16.94
O       8.73      12.02      18.98
O      10.07      10.80      14.38
O       7.80       8.97      18.78
O       9.26       8.67      14.57
O      10.12      12.31      17.20
O      28.06      13.49      14.73
O      24.28      10.34      14.77
O      25.83      13.13      14.39
O       6.13       8.69      14.19
O      25.22      11.32      18.93
O      24.37      12.46      17.15
O      18.45       5.42       8.13
O      16.80       7.49       9.97
O      15.93       3.66       7.08
O      18.87       7.31       5.58
O      15.59       5.58       9.64
O      18.26       8.59       7.37
O      16.97       4.73       5.37
O      20.13       4.41       5.56
O      20.77       5.63      10.30
O      21.33       4.15       7.49
O      20.00       7.72       9.86
O      17.26       2.91       9.83
O      19.54       2.81       9.78
O      16.03      16.26      24.37
O      17.74      15.45      21.72
O      18.52      16.60      26.43
O      15.77      19.43      23.61
O      18.93      15.09      23.64
O      16.12      18.17      21.73
O      17.47      18.59      26.11
O      14.31      18.31      26.21
O      13.67      14.33      23.38
O      13.16      16.37      25.78
O      14.51      15.49      21.62
O      17.24      13.74      25.97
O      14.97      13.77      26.21
O      16.07       4.04      32.51
O      17.22       6.65      31.03
O      22.01      21.32      30.70
O      26.52      19.52      30.96
O      14.96       6.49      30.73
O      18.89       3.93      30.88
O      23.41      19.55      30.47
O      18.31      14.50       0.72
O      11.09       0.99       2.77
O      18.41      15.75       2.63
O      12.49       1.50       1.06
O       6.97       1.49       0.68
O       7.97       0.66       2.56
O      11.97      12.28      12.69
O      12.82      11.54      14.86
O      14.29      11.46      12.83
O      24.14      10.78      21.97
O      25.75      12.61      21.46
O      23.88      12.90      23.08
O       8.48       8.72      21.60
O      25.71       8.76      21.05
O       6.95       7.27      22.88
O      23.72      14.16      12.53
O      23.83      15.22      14.72
O      23.36      16.59      12.68
O      19.95       7.73       2.85
O      17.53       7.40       3.03
O      18.46       9.06       1.40
O       4.57       3.61       8.24
O       3.11       1.66       8.15
O       5.47       1.50       7.33
O      19.43      11.82      26.31
O      19.09      13.34      28.20
O      19.69      10.94      28.60
O      29.98      15.42      25.99
O      11.83      14.82      27.85
O      29.04      15.46      28.27
