142

Zn       7.05       6.48      14.88
Zn       7.03       6.42       1.55
Zn      -0.20       6.42       6.66
Zn      -0.17       6.48       9.78
Zn       5.22       8.56      16.44
Zn      12.45       8.57       8.22
Zn       8.46       8.89      16.42
Zn       1.23       8.89       8.23
H       8.08      12.99      15.48
H       3.93       8.78      11.84
H      11.16       8.78      12.82
H      11.17       8.73       3.55
H       4.18      13.57       3.71
H       2.88      13.80       2.53
H       2.94      12.32       3.50
H       3.74      11.84       1.19
H       4.96      11.53       2.39
H      10.12      13.79       5.67
H      11.43      13.56       4.49
H       0.85      12.99       9.19
H      10.18      12.32       4.70
H      12.20      11.52       5.83
H      10.98      11.84       7.02
H      11.40       1.59      14.94
H      10.55       1.41      13.40
H      11.49       2.87      13.72
H       9.05       3.35      13.98
H       9.94       3.62      15.46
H       3.32       1.41      11.27
H       4.17       1.59       9.72
H       9.49       0.08      14.86
H       4.26       2.87      10.95
H       2.70       3.62       9.21
H       1.82       3.35      10.69
H      10.01       5.49       9.41
H      11.07       4.51      10.46
H       9.36       4.09      10.29
H       9.69       5.22      12.48
H       8.64       6.15      11.46
H      10.93       4.62       6.17
H       9.87       5.69       7.12
H       2.26       0.08       9.81
H       9.20       4.26       6.33
H       8.57       6.25       5.00
H       9.62       5.22       4.07
H       2.64       5.70       1.10
H       3.70       4.62       2.04
H       1.97       4.26       1.89
H       2.39       5.22       4.15
H       1.34       6.25       3.22
H       3.84       4.51      14.20
H       2.79       5.48      15.24
H       4.60      15.07       1.90
H       2.13       4.09      14.37
H       1.41       6.15      13.20
H       2.47       5.22      12.17
H      11.83      15.07       6.31
H       6.01       2.16       1.30
H      13.24       2.16       6.92
H       3.94       8.73       4.67
C       4.38       7.28       2.53
C       0.08      13.46       8.58
C       5.37      13.22       1.15
C      12.61      13.22       7.07
C       5.34      14.60       1.26
C      12.57      14.60       6.96
C      10.46       7.94      12.78
C      10.45       7.91       3.63
C       3.22       7.91       4.59
C       3.23       7.94      11.88
C       3.28       7.06       3.54
C       4.40       7.26      13.91
C       3.31       7.04      12.89
C      10.54       7.04      11.77
C      10.51       7.06       4.68
C       9.48       7.87      13.88
C       9.47       7.83       2.53
C       2.24       7.83       5.69
C       2.26       7.87      10.78
C       6.54      11.18       0.12
C      13.77      11.18       8.11
C       7.36       3.97      16.41
C      11.62       7.26      10.75
C       0.13       3.97       8.25
C       6.40      12.65       0.31
C      13.63      12.65       7.91
C       7.60       2.50      16.35
C       0.37       2.50       8.31
C       8.71       0.56      15.46
C       1.48       0.56       9.20
C       8.63       1.93      15.52
C       1.40       1.93       9.15
C       6.75       1.70       0.65
C      11.61       7.28       5.69
C      13.98       1.70       7.57
C       4.40      12.35       1.91
C       3.56      13.05       2.97
C      11.64      12.34       6.30
C      10.80      13.05       5.24
C       9.60       2.82      14.77
C      10.82       2.13      14.18
C       2.37       2.82       9.89
C       3.59       2.13      10.49
C       9.68       5.81      11.55
C       6.81       0.29       0.56
C      10.06       4.93      10.36
C       9.61       5.88       4.96
C       9.93       5.07       6.22
C       2.38       5.88       3.26
C       2.70       5.07       2.00
C       2.46       5.81      13.10
C       2.83       4.93      14.30
C      14.04       0.29       7.66
C       7.24      14.87      16.16
C       0.01      14.87       8.50
C       7.31      13.46      16.09
O       6.94       7.62       0.01
O       1.36       6.96      10.86
O       4.13       8.06      14.86
O       4.13       8.10       1.59
O      11.36       8.10       6.63
O      11.36       8.06       9.80
O       9.58       8.70       1.60
O       9.60       8.73      14.82
O       2.37       8.73       9.84
O       2.35       8.70       6.62
O       5.46      10.50       0.03
O      14.16       7.62       8.21
O      12.69      10.50       8.18
O       7.17       4.50       1.12
O       7.33       4.58      15.29
O       0.10       4.58       9.37
O      -0.06       4.50       7.10
O       7.73      10.72       0.02
O       0.50      10.72       8.20
O       5.43       6.60       2.71
O       5.46       6.59      13.72
O      12.69       6.60      10.93
O      12.66       6.60       5.51
O       8.59       6.96      13.80
O       8.59       6.90       2.60
O       1.37       6.90       5.62
