169

Zn      14.66       9.53       0.75
Zn       9.94      -0.20      14.20
Zn       3.63       5.42       7.66
Zn       2.07       3.25       7.56
Zn      10.08      -0.31       1.05
Zn       2.24      -8.04      14.34
H       2.20       6.09       3.72
H      -8.17       2.92      13.44
H      -6.02       2.84      12.20
H      -6.46       4.47      11.62
H      -7.52       3.08      11.26
H      -5.88       7.03      13.26
H       2.07      14.98       2.10
H       0.54      12.64       3.35
H       0.19      10.16       2.13
H      -1.29      10.44       3.08
H       0.30      10.49       3.87
H       8.93       2.63       4.34
H       3.17       2.67       4.41
H       3.37       0.29       3.10
H       3.04       1.43       1.77
H       1.93       1.34       3.16
H       6.18       1.22       1.07
H       4.06       0.38       9.97
H       4.24      -0.80      11.93
H       4.39       0.74      12.82
H       5.84      -0.03      12.14
H       6.83       4.63       6.37
H       3.15      -3.56      14.58
H       0.97       3.79      10.56
H       1.58       2.30      12.09
H       0.33       2.86      13.23
H       1.90       3.68      13.17
H      -0.85       5.52      14.63
H      -2.28       3.70      14.11
H      -1.72       3.74      12.42
H      -2.77       5.05      13.04
H      -0.66      10.07      11.59
H       1.98      10.38      11.53
H       5.19       5.06      11.19
H       7.70      -7.47      13.27
H       6.89      -6.10      12.50
H       0.74       9.58      10.01
H       0.32       7.47       8.11
H       1.90       8.23       7.84
H       0.41       9.22       7.82
H       5.56       4.30      13.48
H       7.92       3.88      14.86
H       7.44       5.42      14.09
H       8.45       4.24      13.21
H      -2.87       5.58       5.54
H       8.15       0.79      10.76
H       8.85      -3.15      15.24
H       9.09      -5.61      14.17
H      15.37       2.67       0.61
H      10.27      -4.86      15.29
H      12.31       1.76       0.32
H      11.34       8.00       0.10
H       0.77       7.34       0.60
H       3.08       7.53       0.51
H       3.06       6.03       1.47
H      -0.84       5.82       7.49
H       3.17       7.61       2.28
H      -1.20       4.09       7.33
H      -2.50       5.24       7.72
H      -3.25       7.20       3.01
C       7.21      -1.43      15.22
C      -1.05       5.73       4.74
C      -1.65       6.40       3.64
C       8.19       1.36      12.99
C      -0.91       6.84       2.51
C      -7.01       4.27      14.36
C      -6.32       5.49      14.28
C       0.76      14.62       0.10
C       0.72      13.90       1.32
C      -0.11      12.77       1.48
C      -0.80      12.30       0.34
C       6.18      -5.07      15.25
C       4.71       3.80       5.85
C       3.83       2.78       9.42
C       1.76       5.78       9.49
C      -1.65      11.08       0.40
C       1.16       5.03       5.81
C       8.21       1.20       2.14
C       3.99      -6.14      14.81
C      -1.17       7.87      13.96
C      -4.71       7.13      15.27
C       5.03       2.46       3.76
C       4.81      -4.93      14.91
C       5.94       1.92       2.80
C       7.32       1.91       3.07
C       7.86       2.61       4.17
C       7.01       3.34       4.99
C      -1.63       7.48       1.41
C       5.59       3.21       4.84
C       0.49       5.41      11.62
C      -0.15       5.93      12.78
C      -0.26       7.32      12.91
C       0.21       8.23      11.95
C       4.21      -3.65      14.78
C       0.75       7.72      10.74
C       0.95       6.32      10.60
C       5.19       3.12      11.44
C       4.56       2.22      10.60
C       6.33       2.89      12.31
C       7.32       1.93      12.01
C       7.02      -3.92      15.25
C      -1.59       5.10       7.13
C      -6.86       3.53      12.01
C      -0.25      10.75       2.96
C       4.98      -2.53      15.01
C       2.98       1.29       2.86
C       4.76       0.16      11.96
C       1.13       3.18      12.56
C      -1.94       4.36      13.31
C       1.25      10.44      12.36
C       0.92       8.38       8.31
C       7.61       4.35      13.91
C       9.23      -5.19      15.19
C       2.71       7.07       1.43
C       6.39      -2.65      15.17
C       0.52       6.71       2.51
C       1.11       6.17       3.65
C       0.36       5.66       4.73
N      -1.92       5.30       5.73
N       6.41       3.76      13.36
N      14.71       4.63       0.14
N       1.27       7.19       1.47
N      -7.66       3.78      13.22
N      -0.12      12.18       2.73
N       3.67       2.35       3.58
N       4.51       0.87      10.73
N       0.65       4.05      11.49
N      -0.72       5.05      13.73
N       0.04       9.63      12.18
N       1.01       8.64       9.74
O      13.12       8.26       0.60
O       7.82       1.12       0.91
O      10.72       1.49       0.17
O       8.32      -1.43      14.59
O       2.92      -6.19      14.09
O      -0.88       7.70      15.21
O      -2.24       8.41      13.54
O       2.56      15.96       0.83
O      -4.92       7.98      14.31
O       8.04       1.64      14.24
O       9.12       0.52      12.57
O       3.60       3.23       6.13
O      -2.67      11.06       1.19
O      -7.66       1.47      14.91
O      -2.74       8.09       1.70
O      -1.17       7.42       0.21
O       5.09       4.90       6.45
O       4.59       4.38      11.55
O      -3.00       6.57       3.73
O      -6.37       6.18      13.11
O       1.45      14.26       2.41
O       5.40       1.41       1.65
O       4.24       3.87       8.93
O       7.56       4.11       5.97
O       7.43       1.45      10.72
O      13.07       2.40       0.26
O       4.37      -1.30      15.01
O       2.85       2.08       8.92
O       2.80       6.43       9.09
O       1.42       4.65       8.98
O       2.15       5.70       6.25
O       0.84       3.84       6.19
O       9.31       0.67       2.56
