400

Cu       1.64       0.09       7.52
Cu       1.64       8.13       7.11
Cu       6.05      16.35      21.73
Cu       6.05       8.32      22.14
Cu       5.67      -6.72      22.24
Cu       5.67       1.17      21.63
Cu       2.02      23.17       7.00
Cu       2.02      15.28       7.62
H       2.54      -1.36      15.99
H       2.54      -4.19      27.88
H       5.16      17.81      13.26
H       5.16      20.63       1.36
H       1.64       0.68      19.70
H       1.64      -6.23      24.17
H       6.05      15.76       9.54
H       6.05      22.68       5.08
H       0.52       2.46      15.94
H       0.52      -8.01      27.93
H       7.17      13.99      13.31
H       7.17      24.46       1.32
H       3.01       2.72      11.56
H       3.01       5.50       3.06
H       4.68      13.73      17.68
H       4.68      10.94      26.19
H       2.88       2.08       9.16
H       2.88       6.14       5.47
H       4.81      14.37      20.09
H       4.81      10.30      23.78
H       0.41      -1.15      10.01
H       0.41       9.38       4.61
H       7.28      17.60      19.24
H       7.28       7.07      24.64
H       0.54      -0.72      12.46
H       0.54       8.94       2.17
H       7.15      17.16      16.79
H       7.15       7.51      27.08
H       1.53      -4.09      21.23
H       1.53      -1.46      22.64
H       6.16      20.54       8.02
H       6.16      17.91       6.61
H       3.03      -5.65      22.43
H       3.03       0.10      21.44
H       4.67      22.10       6.82
H       4.67      16.35       7.81
H       6.32      -4.53      20.16
H       6.32      -1.02      23.71
H       1.37      20.98       9.08
H       1.37      17.47       5.54
H       4.97      -2.82      18.92
H       4.97      -2.73      24.95
H       2.73      19.27      10.32
H       2.73      19.18       4.30
H       2.29       5.54      20.73
H       2.29      19.13      23.14
H       5.40      10.91       8.52
H       5.40      -2.69       6.10
H       1.08       7.26      21.99
H       1.08      17.41      21.88
H       6.61       9.19       7.25
H       6.61      -0.96       7.37
H       5.09       5.93      20.62
H       5.09      18.74      23.25
H       2.61      10.52       8.63
H       2.61      -2.29       6.00
H       6.16       4.04      19.37
H       6.16      -9.59      24.50
H       1.53      12.41       9.88
H       1.53      26.03       4.74
H       5.39       7.70       5.18
H       5.39       0.53       9.45
H       2.31       8.75      24.07
H       2.31      15.92      19.80
H       4.36       9.51       1.40
H       4.36      -1.28      13.22
H       3.33       6.94      27.84
H       3.33      17.73      16.03
H       6.38       5.68       1.47
H       6.38       2.54      13.15
H       1.31      10.77      27.78
H       1.31      13.91      16.09
H       5.21       2.76       6.49
H       5.21       5.46       8.13
H       2.49      13.69      22.76
H       2.49      10.98      21.12
H       6.64       1.09       7.60
H       6.63       7.13       7.02
H       1.06      15.35      21.64
H       1.06       9.32      22.23
H       2.35       2.42       5.64
H       2.35       5.80       8.98
H       5.34      14.02      23.61
H       5.34      10.65      20.26
H       1.06       4.25       4.50
H       1.06       3.98      10.13
H       6.64      12.20      24.75
H       6.64      12.47      19.12
H       5.99      12.55       6.25
H       5.99      25.89       8.37
H       1.70       3.90      22.99
H       1.70      -9.45      20.88
H       4.74      14.24       7.52
H       4.74      24.20       7.10
H       2.95       2.20      21.73
H       2.95      -7.75      22.14
H       1.09      12.87       6.09
H       1.09      25.57       8.54
H       6.60       3.57      23.16
H       6.60      -9.12      20.71
H       2.21      11.01       4.83
H       2.21      -2.79       9.80
H       5.48       5.43      24.42
H       5.48      19.24      19.45
H       6.89      -3.99      26.29
H       6.89      -1.56      17.58
H       0.80      20.44       2.96
H       0.80      18.00      11.66
H       6.82      -4.67      23.89
H       6.82      -0.89      19.99
H       0.87      21.11       5.36
H       0.87      17.33       9.26
H       4.39      -7.93      24.73
H       4.39       2.37      19.14
H       3.31      24.37       4.52
H       3.31      14.07      10.10
H       4.44      -7.45      27.17
H       4.44       1.90      16.71
H       3.25      23.90       2.08
H       3.25      14.55      12.54
C       1.52       0.54      15.82
C       1.52      -6.09      28.05
C       6.18      15.91      13.42
C       6.18      22.53       1.20
C       2.12      -0.51      16.52
C       2.12      -5.04      27.35
C       5.57      16.96      12.73
C       5.57      21.49       1.89
C       2.18      -0.43      17.91
C       2.18      -5.12      25.97
C       5.51      16.88      11.34
C       5.51      21.57       3.28
C       1.64       0.64      18.61
C       1.64      -6.19      25.26
C       6.05      15.81      10.64
C       6.05      22.64       3.99
C       1.05       1.66      17.87
C       1.05      -7.22      26.00
C       6.64      14.78      11.38
C       6.64      23.66       3.25
C       0.98       1.64      16.48
C       0.98      -7.19      27.39
C       6.71      14.81      12.76
C       6.71      23.64       1.86
C       1.93       1.41      13.64
C       1.93       6.82       0.99
C       5.77      15.04      15.61
C       5.77       9.63      28.26
C       2.22      -2.35      19.32
C       2.22      -3.20      24.55
C       5.47      18.80       9.93
C       5.47      19.64       4.69
C       1.25       3.58      19.24
C       1.25      -9.13      24.63
C       6.45      12.86      10.00
C       6.45      25.58       4.62
C       1.79       1.05      12.20
C       1.79       7.17       2.42
C       5.91      15.40      17.04
C       5.91       9.27      26.83
C       2.42       1.86      11.26
C       2.42       6.36       3.37
C       5.27      14.59      17.99
C       5.27      10.08      25.88
C       2.35       1.51       9.92
C       2.35       6.71       4.71
C       5.35      14.94      19.33
C       5.35       9.73      24.54
C       1.01      -0.32      10.39
C       1.01       8.55       4.23
C       6.69      16.77      18.85
C       6.69       7.90      25.02
C       1.07      -0.07      11.76
C       1.07       8.29       2.87
C       6.63      16.51      17.49
C       6.63       8.16      26.38
C       3.13      -3.31      19.98
C       3.13      -2.24      23.89
C       4.56      19.76       9.26
C       4.56      18.69       5.36
C       2.59      -4.13      20.98
C       2.59      -1.42      22.89
C       5.10      20.58       8.27
C       5.10      17.86       6.35
C       3.43      -5.02      21.64
C       3.43      -0.53      22.23
C       4.27      21.46       7.61
C       4.27      16.98       7.02
C       5.26      -4.38      20.38
C       5.26      -1.17      23.50
C       2.44      20.83       8.87
C       2.44      17.62       5.75
C       4.50      -3.44      19.69
C       4.50      -2.11      24.18
C       3.19      19.89       9.56
C       3.19      18.56       5.06
C       0.48       4.63      19.95
C       0.48     -10.18      23.92
C       7.21      11.81       9.30
C       7.21      26.63       5.33
C       1.21       5.57      20.69
C       1.21      19.10      23.18
C       6.49      10.88       8.55
C       6.49      -2.66       6.07
C       0.52       6.55      21.39
C       0.52      18.12      22.48
C       7.17       9.90       7.85
C       7.17      -1.68       6.77
C       6.17       5.78      20.63
C       6.17      18.89      23.24
C       1.52      10.67       8.62
C       1.52      -2.44       6.01
C       6.77       4.74      19.93
C       6.77     -10.29      23.94
C       0.92      11.70       9.32
C       0.92      26.74       5.30
C       5.98       6.60       3.39
C       5.98       1.63      11.24
C       1.72       9.85      25.86
C       1.72      14.82      18.01
C       5.42       7.66       4.09
C       5.42       0.56      10.54
C       2.27       8.78      25.16
C       2.27      15.89      18.71
C       4.85       8.69       3.34
C       4.85      -0.47      11.28
C       2.85       7.75      25.91
C       2.85      16.92      17.96
C       4.81       8.68       1.95
C       4.81      -0.46      12.68
C       2.88       7.77      27.30
C       2.88      16.90      16.57
C       5.37       7.58       1.29
C       5.37       0.64      13.33
C       2.33       8.86      27.95
C       2.33      15.81      15.92
C       5.95       6.53       2.00
C       5.95       1.69      12.63
C       1.74       9.92      27.25
C       1.74      14.75      16.62
C       5.98       4.66       4.77
C       5.98       3.57       9.86
C       1.72      11.79      24.48
C       1.72      12.88      19.39
C       4.99      10.60       4.73
C       4.99      -2.38       9.89
C       2.70       5.85      24.51
C       2.70      18.82      19.36
C       5.78      -5.30      28.35
C       5.78      -0.25      15.52
C       1.91      21.75       0.89
C       1.91      16.70      13.73
C       6.86       3.66       5.41
C       6.86       4.57       9.22
C       0.83      12.79      23.84
C       0.83      11.88      20.03
C       6.28       2.75       6.29
C       6.28       5.48       8.33
C       1.42      13.70      22.96
C       1.42      10.97      20.91
C       7.08       1.80       6.91
C       7.08       6.42       7.72
C       0.61      14.65      22.34
C       0.61      10.02      21.53
C       1.28       2.56       5.81
C       1.28       5.67       8.82
C       6.41      13.89      23.44
C       6.41      10.78      20.43
C       0.55       3.56       5.17
C       0.55       4.67       9.45
C       7.14      12.89      24.07
C       7.14      11.78      19.80
C       4.20      11.63       5.44
C       4.20      -3.40       9.18
C       3.49       4.82      23.81
C       3.49      19.85      20.07
C       4.90      12.56       6.21
C       4.90      25.88       8.42
C       2.79       3.88      23.04
C       2.79      -9.43      20.83
C       4.20      13.53       6.91
C       4.20      24.92       7.72
C       3.49       2.92      22.34
C       3.49      -8.47      21.53
C       2.17      12.74       6.11
C       2.17      25.71       8.52
C       5.52       3.71      23.14
C       5.52      -9.26      20.73
C       2.80      11.72       5.40
C       2.80      -3.50       9.22
C       4.89       4.73      23.85
C       4.89      19.94      20.02
C       5.67      -5.67      26.92
C       5.67       0.12      16.95
C       2.02      22.12       2.33
C       2.02      16.32      12.30
C       6.32      -4.87      25.98
C       6.32      -0.68      17.89
C       1.37      21.32       3.27
C       1.37      17.13      11.35
C       6.28      -5.24      24.64
C       6.28      -0.32      19.23
C       1.41      21.68       4.61
C       1.41      16.76      10.02
C       4.96      -7.08      25.11
C       4.96       1.53      18.76
C       2.74      23.53       4.14
C       2.74      14.92      10.49
C       4.98      -6.80      26.47
C       4.98       1.25      17.40
C       2.71      23.25       2.77
C       2.71      15.19      11.85
Br       4.02       0.06       6.93
Br       4.02       8.16       7.70
Br       3.67      16.39      22.32
Br       3.67       8.28      21.55
Br       0.36      -6.77      21.67
Br       0.36       1.22      22.20
Br       7.34      23.21       7.57
Br       7.34      15.23       7.05
N       4.74      -5.16      21.35
N       4.74      -0.39      22.52
N       2.96      21.61       7.90
N       2.96      16.83       6.72
N       6.87       6.68      21.36
N       6.87      17.99      22.51
N       0.82       9.77       7.88
N       0.82      -1.55       6.74
N       1.65       0.44       9.48
N       1.65       7.78       5.15
N       6.05      16.01      19.77
N       6.05       8.66      24.10
N       0.71       1.68       6.67
N       0.71       6.54       7.95
N       6.98      14.77      22.58
N       6.98       9.90      21.29
N       2.85      13.64       6.86
N       2.85      24.81       7.77
N       4.84       2.81      22.39
N       4.84      -8.36      21.48
N       5.61      -6.32      24.20
N       5.61       0.77      19.67
N       2.08      22.77       5.05
N       2.08      15.67       9.58
O       1.43       0.39      14.44
O       1.43       7.83       0.18
O       6.26      16.05      14.81
O       6.26       8.62      29.06
O       2.91      -1.43      18.57
O       2.91      -4.12      25.30
O       4.78      17.87      10.68
O       4.78      20.57       3.95
O       0.44       2.74      18.52
O       0.44      -8.29      25.35
O       7.26      13.71      10.72
O       7.26      24.73       3.90
O       2.43       2.43      14.06
O       2.43       5.79       0.56
O       5.27      14.02      15.18
O       5.27      10.65      28.69
O       1.00      -2.36      19.42
O       1.00      -3.19      24.46
O       6.69      18.81       9.83
O       6.69      19.63       4.79
O       2.46       3.49      19.27
O       2.46      -9.04      24.60
O       5.23      12.96       9.98
O       5.23      25.48       4.64
O       6.69       5.60       4.06
O       6.69       2.63      10.56
O       1.00      10.85      25.19
O       1.00      13.82      18.68
O       4.21       9.75       3.98
O       4.21      -1.53      10.64
O       3.49       6.69      25.26
O       3.49      17.98      18.61
O       5.32      -6.33      29.16
O       5.32       0.78      14.72
O       2.37      22.78       0.09
O       2.37      15.67      14.53
O       4.76       4.66       4.85
O       4.76       3.57       9.78
O       2.93      11.79      24.40
O       2.93      12.88      19.47
O       6.21      10.51       4.78
O       6.21      -2.29       9.84
O       1.48       5.93      24.47
O       1.48      18.74      19.40
O       6.23      -4.25      28.78
O       6.23      -1.30      15.09
O       1.47      20.70       0.47
O       1.47      17.75      14.16
