84

Zn       5.56       7.67       8.91
Zn       8.46       7.66       8.91
H       4.91       7.95      13.18
H       9.10       7.97       4.66
H       4.92       6.98       4.71
H       9.08       6.94      13.08
H       5.98       0.89       7.01
H       7.98      14.44       6.98
H       6.03      14.43      10.83
H       8.01       0.88      10.81
H      13.07       5.72       7.93
H       0.95       8.72      10.79
H      13.08       9.58       9.89
H       0.96       6.58       7.03
H      10.58       5.81       7.97
H       3.45       8.71      10.69
H      10.59       9.50       9.85
H       3.45       6.60       7.12
C       7.04       5.05       8.90
C       7.05      10.28       8.92
C       6.99       7.60       6.32
C       6.99       7.60      11.49
C       5.81       7.54      15.10
C       8.21       7.58       2.72
C       5.83       7.02       2.76
C       8.18       6.97      15.04
C       5.82       7.67      13.71
C       8.19       7.70       4.12
C       5.83       7.15       4.15
C       8.17       7.12      13.65
C       7.00       7.47      12.99
C       7.00       7.49       4.83
C       7.00       7.19      15.80
C       7.02       7.24       2.01
C       7.00       7.10      17.20
C       7.03       7.17       0.61
C       6.44       1.43       7.84
C       7.55      13.90       7.83
C       6.47      13.89       9.99
C       7.57       1.42       9.98
C       6.42       2.83       7.85
C       7.59      12.50       7.84
C       6.45      12.49       9.98
C       7.61       2.82       9.97
C       7.02       3.54       8.91
C       7.03      11.78       8.91
C       7.00       0.71       8.91
C       7.01      14.61       8.91
C      12.57       6.59       8.35
C       1.46       8.26       9.94
C      12.57       8.72       9.47
C       1.46       7.04       7.87
C      11.18       6.63       8.37
C       2.85       8.25       9.91
C      11.19       8.69       9.44
C       2.85       7.06       7.91
C      13.30       7.65       8.91
C       0.73       7.65       8.91
C       4.59       7.78      15.81
C       9.43       7.81       2.02
C       4.63       6.64       2.10
C       9.39       6.57      15.70
C       5.78       3.54       6.79
C       8.18      11.80       6.74
C       5.83      11.78      11.06
C       8.22       3.52      11.05
N      10.50       7.66       8.91
N       3.53       7.66       8.91
N       3.58       7.99      16.35
N      10.44       8.02       1.48
N       3.62       6.30       1.60
N      10.38       6.23      16.20
N       5.25       4.10       5.91
N       8.66      11.24       5.83
N       5.32      11.21      11.94
N       8.72       4.07      11.95
O       5.91       5.60       8.92
O       8.19       9.74       8.94
O       5.91       9.72       8.89
O       8.19       5.58       8.88
O       5.85       7.63       6.89
O       8.12       7.64      10.92
O       5.85       7.66      10.93
O       8.12       7.65       6.90
