64

Zn       6.65       5.79       7.93
Zn       3.77       5.91       8.15
H       3.82       4.31      15.46
H       8.88       7.47       6.93
H       5.67       3.58       1.40
H       2.65       6.10       0.65
H       4.58       8.16      14.70
H       6.43       7.43       0.64
H       7.60       5.64      15.45
H       3.66       1.81       9.26
H       7.34       1.24       3.62
H       7.79       9.66       4.02
H       6.73       8.62       5.98
H       3.95      10.23       9.55
H       1.57       7.59       7.14
H       2.73       4.06       9.93
H       1.49       2.10      10.83
H       8.91       1.77      10.29
H       7.69       3.44       8.93
C       4.96       3.30       7.59
C       6.92       0.77       4.51
C       7.26      10.28       4.74
C       5.48       5.55      10.61
C       6.67       9.70       5.84
C       5.96      10.48       6.79
C       5.64       1.01       6.59
C       4.92       1.80       7.54
C       4.23       1.19       8.57
C       4.50      10.70       8.74
C       5.27       9.90       7.91
C       5.37       5.93      14.67
C       1.67       3.91       9.70
C       0.98       2.83      10.21
C       9.43       2.65       9.91
C       5.30       8.43       8.18
C       8.74       3.57       9.16
C       9.42       4.71       8.66
C       1.00       4.85       8.89
C       1.01       6.78       7.61
C       9.44       6.69       7.46
C       5.03       6.22       5.47
C       5.79       6.59       0.38
C       5.36       4.44       0.79
C       4.47       5.16      15.71
C       5.49       5.58      12.06
C       4.92       6.20       4.03
C       6.57       5.89      15.71
C       4.88       5.81       1.43
C       4.89       7.30      15.30
C       3.69       5.85       0.39
C       5.45       5.70      13.27
C       4.86       6.05       2.82
C       6.22       1.53       5.41
N       1.69       5.89       8.31
N       8.75       5.67       7.96
O       6.11       3.83       7.73
O       3.85       3.92       7.59
O       6.59       5.66      10.01
O       4.33       5.42      10.07
O       6.43       7.83       8.10
O       4.19       7.89       8.49
O       6.21       6.07       5.94
O       3.95       6.36       6.14
F       6.05       2.86       5.13
