186

Zn       9.73      18.66      18.65
Zn      17.64      10.95       0.97
Zn      17.81       7.72       0.98
Zn      24.16      18.63      18.53
Zn       7.23      18.66       0.95
Zn      16.96      10.92      18.56
Zn      16.84      26.38      18.55
Zn      10.55      18.68       0.95
H      10.87      18.56       7.67
H       6.55      18.85       7.45
H      10.57      18.86      12.13
H       6.26      18.53      11.84
H      17.38       7.14      11.99
H      17.12      11.47      11.96
H      17.32       7.16       7.53
H      17.56      11.49       7.57
H      10.92      14.10      17.92
H      10.20      13.49      19.42
H      11.74      11.73      19.44
H      12.43      12.34      17.92
H       4.60       3.19       1.89
H       5.92       4.36       1.95
H       3.05       4.94       1.89
H       4.37       6.10       1.97
H      12.81      15.80      18.02
H      13.43      16.32      19.58
H      14.98      14.56      19.53
H      14.32      14.02      17.99
H      23.05      23.37      17.84
H      23.68      23.87      19.42
H      22.12      25.61      19.50
H      21.52      25.12      17.90
H      13.04      15.34       1.82
H      11.74      14.15       1.72
H      14.62      13.61       1.77
H      13.31      12.43       1.69
H      21.18      21.66      17.71
H      20.47      21.01      19.18
H      18.92      22.75      19.18
H      19.65      23.42      17.73
H      10.43      23.52      18.48
H      11.62      22.45      17.71
H      13.13      24.23      17.67
H      11.96      25.27      18.51
H      14.71      22.78      18.99
H       6.67      13.53       0.99
H      13.16      21.03      19.11
H       5.08      11.84       1.10
H       2.31      14.36       1.26
H       3.38      13.37       2.23
H       5.01      15.04       2.20
H       3.91      16.06       1.28
H      23.41      13.72      18.44
H      22.23      14.74      17.60
H      20.74      12.93      17.62
H      21.89      11.97      18.58
H      19.16      14.51      18.78
H      11.00       5.23       0.77
H      20.70      16.26      18.89
H      12.63       6.89       0.89
H      15.36       4.35       1.21
H      14.32       5.42       2.13
H      12.62       3.81       2.15
H      13.72       2.69       1.35
C       2.52      11.88       0.07
C      17.61       9.35       3.40
C      10.67      16.10      19.73
C      23.27      16.10      19.70
C       8.16      18.63      16.14
C      23.21      21.23      19.53
C      14.42      11.87      19.67
C      16.98       9.31      16.12
C      14.36      25.38      19.73
C      19.43      25.42      19.58
C       8.90      18.63       3.40
C      19.43      11.95      19.72
C       8.84      18.67       4.90
C       9.98      18.58       5.71
C       9.94      18.62       7.10
C       8.70      18.70       7.75
C       7.53      18.78       6.97
C       7.62      18.78       5.59
C       8.61      18.71       9.16
C       8.53      18.71      10.38
C       8.43      18.70      11.79
C       9.59      18.78      12.59
C       9.47      18.78      13.97
C       8.24      18.66      14.64
C       7.11      18.56      13.81
C       7.18      18.60      12.43
C      17.07       9.31      14.63
C      17.22       8.12      13.89
C      17.29       8.09      12.50
C      17.26       9.30      11.78
C      17.14      10.51      12.49
C      17.03      10.49      13.87
C      17.33       9.30      10.37
C      17.38       9.31       9.15
C      17.44       9.32       7.74
C      17.40       8.12       7.02
C      17.42       8.16       5.63
C      17.54       9.35       4.90
C      17.60      10.52       5.66
C      17.53      10.54       7.04
C      11.15      13.79      18.95
C      12.16      12.62      18.95
C      13.45      13.04      19.71
C       5.01       4.08       1.39
C       3.98       5.24       1.40
C      11.73      15.00      19.72
C      13.03      15.45      19.04
C      14.04      14.28      19.02
C      22.76      23.60      18.88
C      21.73      24.76      18.92
C      20.42      24.27      19.57
C      12.68      14.48       1.24
C      13.72      13.34       1.21
C      22.16      22.33      19.52
C      20.90      21.92      18.74
C      19.88      23.08      18.75
C      11.46      23.13      18.56
C      12.48      24.30      18.55
C       5.30      14.93       0.06
C       6.01      13.56       0.11
C       4.97      12.42       0.17
C       3.54      13.01       0.10
C       3.33      13.95       1.30
C       4.39      15.07       1.29
C      22.38      14.11      18.48
C      21.37      12.94      18.53
C      12.40       3.77       0.00
C      19.75      14.46      19.70
C      20.81      15.59      19.75
C      22.23      14.99      19.75
C      14.36       4.79       1.23
C      13.27       3.69       1.27
N      11.33      18.39       5.12
N       6.34      18.97       4.87
N      10.74      18.97      14.71
N      23.50      18.36      14.38
N      17.38      25.49      14.57
N      16.80      11.80      14.52
N      17.25       6.85       4.95
N      17.81      11.84       5.00
O       8.04      18.65      19.63
O      10.70      20.33      18.90
O      17.17      10.39       2.82
O       1.54       6.52       0.58
O       1.60      11.90       0.95
O      10.93      17.19      19.12
O      18.11       8.31       2.86
O      16.14       6.75       0.82
O       7.02      18.90      16.65
O      23.16      16.96      18.77
O       9.23      18.33      16.75
O      16.24      12.18       0.41
O      22.97      20.14      18.91
O      16.92       9.31      19.67
O       6.26       1.67       0.82
O      17.38      10.37      16.70
O      15.40      25.16      19.02
O      15.25      11.84      18.70
O       6.04      17.15       0.57
O      16.51       8.26      16.66
O      18.52      25.41      18.69
O      10.01      18.94       2.86
O      11.55      17.02       0.70
O       7.83      18.29       2.82
O      18.36      12.18      19.06
O      11.67       1.54       0.54
O      11.57      17.28       4.64
O      12.12      19.33       5.22
O       6.16      20.07       4.34
O       5.53      18.04       4.92
O      10.92      20.08      15.23
O      11.55      18.04      14.69
O      23.26      17.23      14.83
O      22.72      19.30      14.29
O      18.42      25.32      15.22
O      16.49      24.66      14.37
O      15.68      11.98      15.03
O      17.72      12.62      14.45
O      16.21       6.70       4.31
O      18.13       6.01       5.13
O      18.91      12.02       4.46
O      16.90      12.66       5.12
