196

Cu       9.08      18.10      17.87
Cu      11.71      19.33      19.13
Cu      10.37      16.78      20.46
Cu      23.83      10.50      28.31
Cu      26.26       9.14      26.81
Cu      24.92      11.75      25.58
Cu       4.61       3.20      12.73
Cu       1.92       4.39      11.54
Cu       3.53       2.15       9.94
Cu      19.09      25.97       2.57
Cu      16.96      24.21       4.15
Cu      18.06      26.92       5.39
H       8.62      20.09      15.44
H      12.26      21.72      17.12
H       8.35      14.38      20.95
H       6.61      16.16      17.41
H      14.15      19.79      21.11
H      12.36      16.26      22.87
H      24.15       9.39       0.10
H      26.79       6.65      28.72
H      22.81      14.07      25.13
H      21.37      12.43      28.87
H      -0.33       8.66      24.74
H      26.82      12.25      23.08
H       5.01       5.06      15.26
H       1.26       6.60      13.72
H       5.58      -0.21       9.37
H       7.03       1.20      13.21
H      28.35       4.77       9.61
H       1.80       2.00       7.29
H      18.89      23.45      30.71
H      16.77      21.68       2.22
H      19.99      29.40       5.91
H      21.21      28.26       1.92
H      14.71      23.48       6.27
H      16.14      27.23       7.89
H      25.11       8.11       2.11
H      25.48       6.46       3.88
H      26.38       6.02       0.25
H      25.03       4.39       1.63
H       8.52      22.17      14.10
H       8.51      24.04      12.56
H      11.39      23.01      14.80
H      11.59      23.77      12.52
H      17.81      19.80       0.70
H      17.89      17.44      29.66
H      18.10      21.12      29.38
H      16.74      19.65      27.84
H       1.04       7.73      15.95
H       1.00       9.15      17.94
H       3.99       7.24      16.68
H       4.02       9.48      17.41
H      22.00       1.21       1.81
H      23.16       3.40       2.01
H      22.27       1.27       4.87
H      24.62       1.99       4.35
H       6.15      13.15      21.15
H       4.12      11.78      21.14
H       5.33      13.84      18.27
H       4.67      11.53      18.12
H       7.59      27.96       9.31
H       9.47      26.42       9.31
H       8.34      28.56      12.23
H       9.10      26.31      12.38
H      20.58      15.18      25.00
H      18.51      16.43      24.96
H      19.93      14.64      27.96
H      19.05      16.92      27.95
H      26.40       3.78       8.11
H      24.79       3.31       6.26
H      28.46       3.07       5.94
H      27.03       4.56       4.52
H      14.52      16.00      24.03
H      16.45      15.89      25.49
H      15.39      18.90      23.49
H      16.00      18.90      25.92
H      -0.03      12.42      21.73
H       1.89      12.51      20.26
H       0.89       9.57      22.40
H       1.65       9.43      20.09
H      13.41      23.27       8.38
H      11.87      23.18      10.26
H      13.96      26.17       9.24
H      11.70      26.25       9.96
C       9.50      20.33      16.02
C      10.45      21.36      15.83
C      11.37      21.16      16.87
C       8.08      14.98      20.09
C       7.01      14.84      19.19
C       7.20      15.89      18.27
C      13.55      18.93      21.38
C      13.72      18.02      22.43
C      12.65      17.12      22.27
C      24.36       8.31      30.17
C      25.22       7.19      30.25
C      25.99       7.29      29.07
C      22.62      13.51      26.04
C      21.61      13.67      27.00
C      21.90      12.67      27.95
C      28.01       9.53      24.50
C      28.16      10.46      23.45
C      27.11      11.37      23.66
C       4.10       5.28      14.71
C       3.10       6.24      14.98
C       2.18       6.06      13.93
C       5.78       0.30      10.31
C       6.77       0.06      11.28
C       6.51       1.02      12.27
C       0.15       4.07       9.22
C       0.17       3.39       7.99
C       1.38       2.67       8.03
C      18.79      23.77       0.68
C      18.16      22.51       0.63
C      17.44      22.46       1.84
C      20.14      28.94       4.94
C      21.01      29.32       3.90
C      20.75      28.37       2.89
C      15.23      24.40       6.51
C      15.00      25.31       7.56
C      15.95      26.32       7.33
C      25.89       6.96       0.53
C      25.47       7.12       1.81
C      25.43       6.12       2.84
C      25.25       4.79       2.63
C      10.48      22.41      14.83
C       9.46      22.71      13.98
C       9.48      23.69      12.93
C      10.60      24.18      12.33
C      17.72      20.75      30.33
C      17.48      19.42      30.46
C      17.57      18.45      29.39
C      17.25      18.72      28.10
C       3.07       7.16      16.09
C       1.99       7.91      16.47
C       1.97       8.91      17.51
C       3.07       9.59      17.93
C      21.97       0.88       3.89
C      22.41       1.51       2.78
C      23.34       2.63       2.76
C      24.38       2.76       3.62
C       5.94      13.86      19.17
C       5.62      13.03      20.20
C       4.58      12.03      20.19
C       4.15      11.39      19.07
C       7.77      28.63      11.30
C       8.10      27.82      10.26
C       9.09      26.77      10.28
C       9.54      26.14      11.40
C      20.50      14.59      27.02
C      20.08      15.33      25.96
C      18.98      16.26      25.94
C      18.52      16.96      27.01
C      28.11       3.37       6.93
C      26.78       3.62       7.09
C      25.81       3.64       6.02
C      26.09       4.04       4.76
C      14.78      18.00      23.42
C      15.07      16.94      24.21
C      16.06      16.87      25.25
C      16.48      17.92      26.00
C       0.26      10.46      22.44
C       0.53      11.49      21.60
C       1.53      11.52      20.56
C       2.05      10.44      19.94
C      14.04      25.26       8.63
C      13.25      24.20       8.93
C      12.19      24.16       9.91
C      11.54      25.26      10.38
N      11.00      20.11      17.62
N       9.84      19.59      17.09
N       8.29      16.61      18.61
N       8.84      16.05      19.74
N      11.90      17.48      21.20
N      12.46      18.60      20.65
N      25.63       8.38      28.37
N      24.61       9.01      29.05
N      22.99      11.97      27.58
N      23.44      12.49      26.39
N      26.39      11.02      24.75
N      26.95       9.87      25.27
N       2.59       5.08      13.11
N       3.78       4.59      13.60
N       5.46       1.79      11.91
N       5.01       1.34      10.69
N       2.02       2.89       9.19
N       1.26       3.77       9.93
N      17.64      23.59       2.55
N      18.48      24.40       1.83
N      19.80      27.51       3.30
N      19.41      27.87       4.57
N      16.69      26.03       6.23
N      16.23      24.84       5.72
N      25.27       3.84       3.65
N      10.59      25.22      11.40
N      17.45      17.86      27.01
N       3.10      10.48      19.00
