160

Zn       6.82       5.63      14.17
Zn       6.54       8.44      14.31
Zn       6.78       8.30       1.06
Zn       6.50       5.49       0.93
H       5.36       3.63      15.62
H       8.30       3.43      12.69
H       8.02      10.44      12.86
H       5.08      10.64      15.77
H       6.76       8.68       5.41
H       6.62       4.41       5.06
H       6.77       5.23       9.82
H       6.66       9.50      10.18
H       6.70       9.12      18.47
H       6.71       4.83      18.49
H       6.70       4.87      25.29
H       6.80       9.16      25.27
H      11.12       5.22      14.26
H      10.71       9.49      14.23
H       2.24       8.73      14.32
H       2.66       4.46      14.21
H       5.43      10.39      28.16
H       8.28      10.49       2.53
H       7.98       3.48       2.37
H       5.13       3.38      27.99
H      11.08       8.72       0.98
H      10.67       4.45       1.02
H       2.20       5.22       0.94
H       2.62       9.48       1.05
C       6.68       6.99      16.85
C       4.08       6.79      14.25
C       6.69       7.21      11.63
C       9.29       7.18      14.21
C       6.74       7.00      26.91
C       4.04       7.16       1.00
C       6.66       6.70       3.60
C       9.25       6.76       1.02
C       5.97       2.97      15.00
C       5.87       1.58      15.06
C       4.97       0.90      15.94
C       7.63       2.87      13.34
C       7.61       1.46      13.33
C       8.44       0.66      12.49
C       7.41      11.10      13.47
C       7.51      12.49      13.40
C       8.41      13.17      12.52
C       5.75      11.21      15.12
C       5.77      12.61      15.13
C       4.94      13.41      15.97
C       6.70       0.80      14.21
C       6.67      13.27      14.25
C       6.74       7.71       5.89
C       6.68       5.30       5.69
C       6.74       5.17       7.05
C       6.78       6.30       7.93
C       6.75       6.20       9.34
C       6.70       8.61       9.55
C       6.75       8.74       8.18
C       6.78       7.61       7.30
C       6.69       6.58       5.10
C       6.72       7.33      10.13
C       6.71       8.20      19.04
C       6.73       8.22      20.44
C       6.75       9.44      21.19
C       6.71       5.76      19.05
C       6.71       5.76      20.45
C       6.70       4.55      21.21
C       6.72       5.80      24.72
C       6.72       5.77      23.32
C       6.70       4.55      22.58
C       6.77       8.23      24.72
C       6.76       8.23      23.31
C       6.77       9.45      22.55
C       6.70       6.98      18.35
C       6.72       6.99      21.17
C       6.74       7.02      25.41
C       6.73       7.00      22.59
C      11.59       6.20      14.26
C      11.36       8.61      14.25
C      12.72       8.75      14.30
C       0.36       7.63      14.32
C       1.77       7.75      14.30
C       2.01       5.34      14.24
C       0.65       5.20      14.28
C      13.00       6.32      14.31
C      10.79       7.32      14.23
C       2.58       6.63      14.26
C       5.95      10.96       0.24
C       5.86      12.36       0.17
C       5.07      13.12      27.83
C       7.62      11.06       1.88
C       7.60      12.46       1.89
C       8.45      13.25       2.72
C       7.36       2.83       1.75
C       7.46       1.43       1.82
C       8.36       0.75       2.69
C       5.69       2.73       0.11
C       5.71       1.33       0.10
C       4.98       0.62      27.79
C       6.70      13.13       1.01
C       6.61       0.66       0.98
C      11.55       7.74       0.98
C      11.32       5.33       1.00
C      12.68       5.19       0.96
C       0.32       6.31       0.94
C       1.73       6.19       0.96
C       1.97       8.60       1.01
C       0.61       8.74       0.98
C      12.96       7.63       0.95
C      10.75       6.62       1.01
C       2.54       7.31       1.00
N       6.83       3.58      14.16
N       6.55      10.50      14.31
N       6.80      10.35       1.07
N       6.50       3.44       0.92
N       6.78      10.12       7.66
N       6.76       3.79       7.57
N       0.15       3.81      14.30
N      13.22      10.14      14.35
N       0.10      10.14       0.96
N      13.18       3.80       0.92
O       6.78       5.88      16.24
O       6.58       8.14      16.30
O       4.53       7.98      14.27
O       4.76       5.71      14.21
O       6.60       8.31      12.27
O       6.76       6.05      12.13
O       8.83       6.00      14.15
O       8.62       8.26      14.26
O       6.85       8.11      27.52
O       6.61       5.86      27.46
O       4.49       5.97       1.00
O       4.72       8.23       1.01
O       6.58       5.60       2.96
O       6.71       7.86       3.10
O       8.79       7.95       1.09
O       8.58       5.69       0.95
O       7.44      10.36       6.64
O       6.15      10.98       8.30
O       7.43       3.55       8.59
O       6.12       2.94       6.94
O      12.36       3.56      14.95
O       0.81       2.96      13.69
O       0.99      10.38      15.03
O      12.58      11.00      13.73
O      12.32      10.38       0.30
O       0.76      10.98       1.58
O       0.96       3.56       0.26
O      12.53       2.95       1.55
F       4.09      12.79      16.81
F       4.18       1.63      16.75
F       9.21      12.44      11.72
F       9.30       1.28      11.66
F       6.79      10.63      23.22
F       6.75      10.61      20.51
F       6.69       3.38      23.26
F       6.68       3.37      20.54
F       4.13       1.24      26.96
F       4.26      12.40      27.03
F       9.16       1.48       3.49
F       9.31      12.63       3.55
