168

Zn       1.22      12.23       1.62
Zn       7.85      -3.74      11.76
H       2.61       8.28       1.83
H      -0.17      10.36       5.10
H       6.46       0.21      11.55
H       9.25      -1.87       8.27
H       3.76       6.07       1.63
H      -1.32       9.59       7.19
H       5.32       2.42      11.74
H      10.39      -1.10       6.19
H       5.62       4.69       0.72
H      -3.18       9.84       8.82
H       3.45       3.80      12.66
H      12.25      -1.34       4.55
H      -0.98       4.24      12.66
H       3.42      -1.16       4.15
H      10.05       4.25       0.71
H       5.66       9.66       9.23
H      -2.01       4.18      10.44
H       4.45       0.83       5.15
H      11.08       4.31       2.94
H       4.62       7.67       8.22
H       9.39       7.98      11.38
H       6.32       1.59       1.31
H      -0.31       0.51       2.00
H       2.75       6.90      12.07
H      -0.66      14.15       0.21
H       3.10      14.32       0.49
H       9.74      -5.65      13.17
H       5.97      -5.83      12.89
H      10.40       4.18       8.69
H       5.31       2.41       5.89
H      -1.32       4.31       4.69
H       3.76       6.08       7.48
H       9.39       4.24       6.47
H       6.32       4.44       6.79
H      -0.32       4.26       6.91
H       2.76       4.05       6.58
H       7.58       8.05       7.36
H       8.12       5.25       2.96
H       1.49       0.45       6.01
H       0.95       3.24      10.41
H       8.57       8.01       9.59
H       7.14       3.22       2.04
H       0.50       0.48       3.78
H       1.94       5.27      11.33
H       9.73       8.09       5.51
H       5.97       6.95       3.71
H      -0.66       0.41       7.87
H       3.10       1.55       9.66
H       9.73      10.16       4.20
H       5.98       9.01       2.39
H      -0.65      -1.67       9.17
H       3.09      -0.52      10.98
H       5.69      11.21       2.28
H      10.02      11.19       2.26
H       3.38      -2.72      11.09
H      -0.95      -2.70      11.12
H       5.78      13.28       0.96
H       9.93      13.27       0.96
H       3.29      -4.78      12.42
H      -0.86      -4.78      12.42
C       3.32      10.63       0.70
C      -0.88      12.38       3.46
C       5.75      -2.14      12.67
C       9.96      -3.89       9.92
C       4.02       9.31       0.55
C      -1.58      11.95       4.72
C       5.05      -0.82      12.82
C      10.66      -3.46       8.66
C       3.51       8.16       1.23
C      -1.07      10.86       5.47
C       5.56       0.33      12.15
C      10.15      -2.36       7.91
C       4.15       6.95       1.12
C      -1.71      10.43       6.61
C       4.92       1.54      12.26
C      10.78      -1.94       6.77
C       5.33       6.81       0.34
C      -2.89      11.08       7.06
C       3.74       1.68      13.03
C      11.96      -2.59       6.31
C       6.01       5.58       0.22
C       9.70      10.67       8.24
C       3.07       2.91      13.16
C      -0.63      -2.18       5.14
C      -1.63       5.05      12.33
C       4.07      -0.52       3.56
C      10.70       3.44       1.04
C       5.00       9.01       9.82
C      -2.22       5.03      11.08
C       4.66       0.60       4.11
C      11.29       3.46       2.29
C       4.41       7.89       9.27
C      -3.06       6.08      10.67
C       5.50       1.42       3.33
C      12.14       2.41       2.70
C       3.57       7.07      10.04
C      -3.26       7.12      11.61
C       5.70       1.01       1.99
C      12.33       1.37       1.77
C       3.38       7.48      11.38
C      -2.63       7.07      12.85
C       5.07      -0.13       1.51
C      11.70       1.42       0.53
C       4.01       8.62      11.86
C       9.58       6.09       9.34
C       6.13       2.63       3.89
C      -0.50       2.40       4.03
C       2.94       5.86       9.49
C       9.78       5.04       8.43
C       5.93       3.01       5.23
C      -0.70       3.45       4.95
C       3.14       5.48       8.14
C       9.21       5.06       7.16
C       6.50       4.17       5.75
C      -0.14       3.43       6.22
C       2.58       4.33       7.62
C       8.41       6.15       6.76
C       7.29       4.99       4.94
C       0.66       2.35       6.62
C       1.78       3.50       8.44
C       8.20       7.20       7.66
C       7.51       4.62       3.60
C       0.87       1.29       5.71
C       1.56       3.87       9.77
C       8.77       7.17       8.93
C       6.94       3.46       3.09
C       0.31       1.32       4.45
C       2.13       5.03      10.29
C       7.85       7.37       4.71
C       1.22       1.13       8.67
C       8.91       8.28       4.83
C       6.80       7.65       3.83
C       0.16       0.21       8.55
C       2.28       0.84       9.55
C       8.90       9.46       4.08
C       6.80       8.82       3.08
C       0.17      -0.96       9.30
C       2.27      -0.33      10.29
C       7.85       9.75       3.19
C       1.22      -1.26      10.18
C       7.85      11.00       2.40
C       1.22      -2.50      10.97
C       6.66      11.62       2.01
C       9.05      11.62       2.00
C       2.41      -3.13      11.37
C       0.02      -3.13      11.37
C       6.71      12.80       1.26
C       8.99      12.79       1.26
C       2.36      -4.30      12.11
C       0.08      -4.30      12.12
N      -1.82       6.05      13.21
N       4.26      -0.89       2.28
N      10.89       2.44       0.16
N       4.81       9.38      11.10
N       7.85       6.17       5.47
N       1.22       2.32       7.91
N       7.85      13.39       0.88
N       1.22      -4.90      12.50
O       2.30      10.60       1.49
O       0.14      11.65       3.15
O       6.78      -2.10      11.88
O       8.93      -3.16      10.23
O       3.72      11.65       0.09
O      -1.28      13.37       2.79
O       5.35      -3.16      13.28
O      10.35      -4.87      10.59
