98

Zn       8.41       7.70      11.86
Zn       5.65       7.71      11.86
H       6.01      10.94      22.45
H       8.04       4.47       1.27
H       3.51       8.22       9.84
H      10.56       5.72      12.48
H       3.51       7.20      13.88
H      10.55       9.70      11.24
H       5.99      10.88       1.26
H       8.06       4.53      22.46
H       4.86       7.65       5.06
H       4.87       7.72      18.66
H       4.82       7.68       7.57
H       4.82       7.69      16.15
H       9.10       7.71       7.66
H       9.11       7.74      16.06
H       9.16       7.72       5.15
H       9.17       7.73      18.57
H       8.98      12.01      10.78
H       5.17       3.50      10.84
H       8.95       3.39      12.93
H       5.20      11.94      12.88
C       7.12      10.32      11.84
C       7.10       5.10      11.87
C       5.79       7.67       5.64
C       5.80       7.72      18.08
C       5.76       7.68       7.03
C       5.77       7.70      16.69
C       6.96       7.70       7.76
C       6.97       7.71      15.96
C       8.18       7.70       7.08
C       8.19       7.73      16.64
C       8.21       7.71       5.69
C       8.22       7.73      18.03
C       7.01       7.69       4.98
C       7.02       7.73      18.74
C       8.10      13.91      11.26
C       5.98       1.55      11.30
C       8.05       1.50      12.46
C       6.03      13.88      12.42
C       8.15      12.53      11.25
C       5.98       2.94      11.30
C       8.11       2.88      12.47
C       6.02      12.49      12.42
C       7.10      11.81      11.84
C       7.07       3.60      11.88
C       7.05      14.64      11.85
C       7.00       0.77      11.87
C       6.94       7.71       9.25
C       6.95       7.70      14.46
C       1.53       8.00      10.71
C      12.54       6.58      12.22
C       1.53       7.41      13.00
C      12.53       8.83      11.50
C       2.92       8.00      10.73
C      11.15       6.59      12.21
C       2.92       7.42      12.99
C      11.15       8.82      11.50
C       0.78       7.71      11.86
C      13.28       7.71      11.86
C       7.43       6.54      20.83
C       6.65       8.88       2.89
C       6.67       8.94      20.83
C       7.41       6.48       2.89
C       6.67       8.92      22.31
C       7.41       6.50       1.41
C       7.05       7.74      23.01
C       7.03       7.67       0.71
C       7.42       6.57      22.31
C       6.65       8.85       1.40
C       6.30      10.06      23.01
C       7.76       5.36       0.71
C       6.28       9.99       0.70
C       7.79       5.43      23.02
N       7.05       7.74      20.18
N       7.03       7.68       3.53
N       3.58       7.71      11.86
N      10.48       7.71      11.86
O       8.23       9.75      11.56
O       6.02       5.70      11.58
O       8.21       5.66      12.15
O       6.03       9.72      12.14
O       8.04       7.46       9.85
O       5.83       7.45      13.89
O       8.04       7.95      13.86
O       5.83       7.97       9.83
O       7.73       5.54      20.18
O       6.34       9.87       3.53
O       6.35       9.93      20.17
O       7.72       5.49       3.55
F       9.10      14.61      10.65
F       4.95       0.90      10.70
F       9.05       0.80      13.07
F       5.00      14.53      13.03
F       0.88       8.26       9.56
F      13.18       5.45      12.57
F       0.89       7.14      14.16
F      13.18       9.97      11.15
