64

Zn       6.37       5.52       7.93
Zn       3.56       5.44       8.20
H       6.65       7.24      15.39
H       3.28       3.72       0.74
H       2.86       5.93      15.07
H       7.07       5.03       1.05
H       3.84       1.11      10.02
H       6.09       9.85       6.10
H       7.29       0.52       8.06
H       2.64      10.44       8.07
H       8.59       5.86      10.17
H       1.34       5.10       5.96
H       1.23       7.45       9.05
H       8.70       3.51       7.08
H       3.79       8.46       0.11
H       6.13       2.50      16.02
H       9.74       7.89       5.97
H       0.19       3.07      10.16
C       4.75       8.08       8.11
C       5.18       2.88       8.02
C       4.28       0.62       9.15
C       5.65      10.34       6.98
C       5.08       1.40       8.04
C       4.84       9.56       8.09
C       6.22       0.31       8.06
C       3.71      10.65       8.07
C       0.70       6.59       8.62
C       9.23       4.37       7.51
C       9.17       5.70       9.26
C       0.75       5.26       6.87
C       9.47       6.51       7.27
C       0.45       4.45       8.86
C       4.75       5.51       5.45
C       5.18       5.45      10.68
C       5.94       6.48      15.73
C       3.99       4.48       0.40
C       4.43       6.65       0.37
C       5.50       4.31      15.76
C       4.66       5.51       4.00
C       5.27       5.45      12.13
C       6.10       5.21       0.57
C       3.83       5.75      15.56
C       4.76       5.47       1.37
C       5.17       5.49      14.75
C       4.66       5.50       2.78
C       5.26       5.46      13.34
C       5.62      10.42       9.16
C       4.31       0.54       6.97
N       8.41       5.61       7.92
N       1.52       5.35       8.21
O       5.87       7.48       8.05
O       4.05       3.47       8.08
O       3.60       7.53       8.19
O       6.32       3.43       7.94
O       5.93       5.45       5.93
O       4.00       5.51      10.20
O       3.66       5.57       6.10
O       6.27       5.39      10.02
O       3.97       7.86       0.86
O       5.96       3.10      15.27
O       9.00       7.51       6.48
O       0.93       3.44       9.65
F       6.17       9.89      10.30
F       3.75       1.07       5.82
