116

Cd       7.59       8.05      13.56
Cd       1.79      13.57       0.00
Cu       4.69      10.81       6.78
Cu       8.26      18.02       6.78
H       4.56       6.92       4.53
H       8.39      14.14       9.03
H       4.82      14.69       9.04
H       0.99       7.48       4.53
H       4.20       4.63       5.42
H       1.61      11.84       8.14
H       5.18      16.99       8.15
H       7.77       9.78       5.43
H       3.80       4.26       7.85
H       2.01      11.47       5.71
H       5.58      17.35       5.72
H       7.37      10.14       7.86
H       3.72       6.23       9.39
H       2.09      13.44       4.18
H       5.66      15.39       4.18
H       7.29       8.17       9.39
H       3.78       8.43       9.80
H       2.02      15.64       3.77
H       5.60      13.18       3.77
H       7.36       5.97       9.80
H       3.39      10.44      10.45
H       2.41       3.23       3.12
H       5.99      11.17       3.12
H       6.97      18.38      10.45
H       3.89      11.87       9.47
H       1.92       4.66       4.10
H       5.49       9.74       4.10
H       7.46      16.96       9.47
H       6.33      12.51       9.37
H       6.62       5.30       4.19
H       3.05       9.11       4.20
H       2.76      16.31       9.38
H       8.53      12.42      10.62
H       4.42       5.22       2.95
H       0.85       9.19       2.95
H       4.96      16.39      10.62
H       8.85      10.65      12.36
H       4.10       3.45       1.21
H       0.53      10.97       1.21
H       5.28      18.17      12.36
H       5.01       9.20      11.80
H       0.79       1.99       1.76
H       4.37      12.41       1.76
H       8.59      19.62      11.81
C       4.33       7.90       6.44
C       1.48      15.11       7.13
C       5.05      13.72       7.13
C       7.90       6.51       6.44
C       4.37       6.76       5.59
C       1.44      13.97       7.97
C       5.01      14.86       7.98
C       7.94       7.65       5.60
C       4.18       5.48       6.10
C       1.63      12.69       7.47
C       5.20      16.13       7.47
C       7.75       8.92       6.10
C       3.95       5.27       7.47
C       1.85      12.48       6.09
C       5.43      16.34       6.10
C       7.53       9.13       7.48
C       3.90       6.36       8.32
C       1.90      13.57       5.25
C       5.48      15.25       5.25
C       7.48       8.04       8.32
C       4.09       7.68       7.83
C       1.72      14.89       5.73
C       5.29      13.94       5.74
C       7.66       6.73       7.84
C       4.03       8.74       8.77
C       1.78      15.95       4.79
C       5.35      12.87       4.79
C       7.60       5.66       8.78
C       4.16      10.85       9.78
C       1.64       3.64       3.79
C       5.22      10.76       3.79
C       7.74      17.97       9.78
C       5.49      10.88      10.50
C       7.45       3.67       3.06
C       3.89      10.74       3.07
C       1.93      17.95      10.50
C       6.50      11.79      10.17
C       6.45       4.58       3.39
C       2.88       9.83       3.40
C       2.93      17.03      10.18
C       7.72      11.73      10.85
C       5.23       4.53       2.72
C       1.66       9.88       2.72
C       4.15      17.09      10.85
C       7.90      10.75      11.82
C       5.04       3.55       1.74
C       1.48      10.86       1.75
C       4.34      18.06      11.82
C       5.76       9.93      11.50
C       7.18       2.73       2.06
C       3.62      11.68       2.07
C       2.20      18.89      11.51
N       4.23      10.01       8.56
N       1.57       2.80       5.00
N       5.15      11.60       5.01
N       7.81      18.81       8.56
N       6.94       9.87      12.14
N       6.00       2.66       1.43
N       2.44      11.75       1.43
N       3.38      18.95      12.14
Cl       6.70      13.61       1.50
Cl       6.25      20.81      12.07
Cl       2.68       8.01      12.07
Cl       3.13       0.81       1.50
O       4.48       9.08       5.91
O       1.33      16.29       7.65
O       4.90      12.53       7.66
O       8.05       5.32       5.92
