94

Hf       0.13      14.88      12.62
Hf       0.11      12.52       0.10
Hf       0.15       2.48      14.92
Hf       0.05       0.10       2.43
Hf      10.50      15.03      15.05
Hf       2.62      15.00      15.07
H       2.04      12.95      13.09
H      11.03      13.10       2.02
H       2.01       2.00       1.94
H      11.22       2.03      12.93
H      12.29      10.70       2.01
H       0.09      12.40       3.01
H      12.26       1.96       4.18
H       0.06       3.02       2.56
H       0.71       4.33      13.17
H      12.25       1.06      10.21
H      12.32      13.02      10.85
H       0.07      11.99      12.46
H      12.10       4.15       1.72
H       0.96       1.15      10.44
H      12.08      10.85      13.27
H       0.96      13.24       4.11
H       9.03      15.03       7.48
H       4.07      15.02       7.53
H       9.03       7.48      15.07
H       4.06       7.48      15.05
C       9.79      14.85      11.91
C       3.28      11.89       0.11
C       9.78      11.89      15.04
C       3.35       0.02      11.95
C       3.36       3.04      14.91
C       9.74       0.14       3.08
C       3.29      14.96       3.11
C       9.71       3.05       0.04
C       7.27      15.00       8.73
C       5.85      15.03       8.74
C       5.16      15.02       7.52
C       5.82      15.02       6.28
C       7.24      -0.00       6.27
C       7.94      15.03       7.49
C       7.26       8.71      15.07
C       5.83       8.70      15.08
C       5.15       7.48      15.05
C       5.84       6.25      15.03
C       7.26       6.25      15.06
C       7.94       7.48      15.07
C       5.09       5.06      14.98
C       4.36       4.08      14.93
C       8.71       4.09       0.04
C       8.01       5.06      15.09
C       5.05       9.90       0.04
C       4.28      10.85       0.09
C       8.78      10.85      15.04
C       8.02       9.90      15.06
C       5.05      15.00       5.10
C       4.29      14.96       4.15
C       7.99       0.05       5.08
C       8.74       0.12       4.12
C       4.35       0.03      10.91
C       5.09      -0.00       9.94
C       8.79      14.89      10.87
C       8.04      14.95       9.91
O      11.00      14.80      11.48
O       9.41      14.89      13.11
O       2.08      11.48       0.13
O       3.69      13.10       0.08
O      10.99      11.46      15.03
O       9.39      13.10      15.08
O       2.14       0.10      11.54
O       3.75      14.96      13.15
O       0.18      13.10      11.48
O       0.08       1.31      10.84
O       0.06      11.32      13.29
O       0.06      11.42       1.89
O      11.94      13.94      14.06
O       1.52      13.53      13.66
O       2.16       3.46      14.84
O       3.75       1.83      14.98
O      10.95       0.21       3.50
O       9.35       0.08       1.87
O       2.08      14.90       3.51
O       3.69      15.03       1.90
O      10.91       3.46       0.19
O       9.36       1.83      14.96
O       0.09       3.69       1.74
O      12.83       3.79      13.42
O       0.12       1.88       3.54
O       0.10      13.24       3.66
O       1.48       1.43       1.36
O      11.91       1.02       0.92
O       1.20       0.96      13.97
O      11.56      13.67       1.44
O      11.66       1.38      13.51
O       1.14      14.01       1.03
