84

Al       0.24      16.78       8.97
Al       3.78       0.09       9.00
Al       6.20       8.37      17.86
Al       2.89       8.52      17.89
H       5.54       1.68       8.45
H       2.02      15.22       8.39
H       4.34       6.75       0.51
H       1.01      10.06       0.57
H       5.48       3.64      11.88
H       4.49       4.82      14.98
H       2.03      13.16       6.03
H       1.00      12.13       2.93
H       1.05      12.37      11.90
H       2.08      12.94      14.96
H       5.51       3.68       6.08
H       4.38       4.75       2.88
C       2.12       1.69       7.23
C       2.01       1.60      10.76
C       5.12      15.25      10.73
C       5.22      15.21       7.20
C       1.13       6.74       1.73
C       1.33       6.86      16.10
C       4.63      10.06      16.13
C       4.44      10.07       1.76
C       0.76       3.37      12.12
C       2.58       5.09      14.75
C       1.91       2.64      11.79
C       1.44       5.82      15.07
C       2.33       4.20      13.66
C       1.01       4.26      13.20
C       3.94      13.47       5.82
C       5.73      11.81       3.13
C       5.08      14.20       6.15
C       4.58      11.08       2.80
C       5.48      12.68       4.23
C       4.18      12.60       4.72
C       6.00      13.27      12.15
C       3.76      12.04      14.72
C       5.06      14.23      11.78
C       4.69      11.07      15.08
C       4.24      12.84      13.64
C       5.52      12.47      13.22
C       0.78       3.39       5.85
C       2.47       5.05       3.10
C       1.95       2.70       6.17
C       1.30       5.74       2.78
C       2.28       4.19       4.22
C       0.98       4.24       4.73
S       3.28       3.05      12.79
S       0.07       5.41      14.07
S       6.43      13.84       5.10
S       3.23      11.45       3.85
S       3.59      14.15      12.72
S       6.16      11.16      14.14
S       3.27       3.09       5.10
S      -0.02       5.35       3.86
O       1.05       1.37       7.83
O       3.15       1.43      10.20
O       4.05      15.91      10.54
O       6.39      15.69       7.40
O       6.22      15.40      10.09
O       4.16      15.52       7.82
O       3.30       1.24       7.46
O       0.95       0.96      10.50
O       5.46       0.84       8.92
O       1.93      16.04       8.91
O      -0.05       7.20       1.50
O       2.40       7.50      16.36
O       3.54       9.91      16.77
O       5.50       9.77       1.13
O       5.71       9.40      16.33
O       3.27       9.59       1.55
O       2.20       7.07       1.12
O       0.20       7.03      16.66
O       4.42       7.59       0.03
O       1.10       9.25       0.04
O       6.25       3.24      11.42
O       3.73       5.22      15.44
O       2.77      13.58       6.50
O       0.26      11.70       2.45
O       0.56      13.13      11.52
O       2.56      12.18      15.34
O       6.26       3.26       6.54
O       3.63       5.18       2.41
