136

Zn       2.88      12.70      17.61
Zn       5.39      -0.13      17.58
Zn       6.48      12.36      35.14
Zn       3.60       0.10       0.01
H       2.62       0.06       4.30
H       2.64      -0.06       6.73
H       7.06      12.81       6.63
H       2.02      12.75      10.94
H       6.24      -0.12      10.85
H       6.26      -0.06      13.28
H       6.08      12.89       8.71
H       3.01      12.88       8.87
H       2.98      12.59      30.93
H       2.82      -0.34      28.50
H       7.15      -0.30      28.45
H       1.96      -0.20      24.33
H       6.29      -0.26      24.26
H       6.32      12.78      21.83
H       6.10      -0.25      26.41
H       3.02      -0.25      26.36
H       7.04       1.04       2.56
H       1.85       0.87      15.05
H       7.34      11.28      32.42
H       1.96      11.54      20.30
H       0.66       3.94      16.68
H       0.88       6.89      16.70
H       1.81       9.37      17.04
H       7.24       8.58      18.15
H       7.02       5.67      18.13
H       6.06       3.20      17.80
H       0.34       4.17       0.93
H       0.13       7.12       0.89
H       7.38       9.59       0.53
H       2.09       8.26      34.62
H       2.30       5.34      34.66
H       3.26       2.87      34.99
C       3.86      10.28      17.38
C       4.27      -0.08      15.01
C       3.96       2.29      17.73
C       4.27      12.64      20.19
C       5.32      10.51       0.18
C       4.61       0.10       2.57
C       5.35       1.95      35.08
C       5.03      12.38      32.57
C       4.75      -0.04       4.05
C       3.57      -0.02       4.82
C       3.59      -0.09       6.20
C       4.92      12.94       6.89
C       6.10      12.90       6.13
C       6.09      12.96       4.74
C       5.05      12.91       8.34
C       4.04      12.89       9.24
C       2.99      12.82      11.44
C       4.17      12.89      10.68
C       5.29      -0.16      11.38
C       5.31      -0.13      12.76
C       4.13      -0.17      13.53
C       3.00      12.85      12.83
C       5.12      12.57      31.10
C       3.92      12.64      30.38
C       3.79      -0.38      29.00
C       5.00      -0.33      28.26
C       6.20      -0.36      28.99
C       6.23      -0.47      30.37
C       5.08      -0.26      26.82
C       4.04      -0.24      25.96
C       2.91      -0.24      23.79
C       4.12      -0.24      24.51
C       5.32      -0.27      23.77
C       5.29      -0.31      22.38
C       4.18      12.77      21.67
C       2.87      -0.30      22.41
C       3.06       7.93      17.26
C       5.42       8.34      17.73
C       5.64       6.98      17.83
C       4.59       6.04      17.61
C       4.80       4.63      17.67
C       2.45       4.22      17.21
C       2.23       5.58      17.07
C       3.27       6.52      17.31
C       4.11       8.85      17.45
C       3.74       3.72      17.54
C       6.12       8.15       0.32
C       3.91       8.02      35.03
C       3.69       6.65      34.94
C       4.73       5.71      35.17
C       4.52       4.30      35.12
C       6.72       4.44       0.40
C       6.93       5.81       0.54
C       5.90       6.75       0.28
C       5.07       9.07       0.13
C       5.43       3.94       0.08
S       7.73      12.80       4.01
S       1.36      12.67      13.56
S       7.89      -0.43      31.07
S       1.21      -0.23      21.71
O       2.63      10.72      17.28
O       4.83      11.10      17.43
O       5.43      -0.18      15.53
O       3.20       0.14      15.70
O       5.19       1.86      17.61
O       2.99       1.52      18.02
O       3.23      12.21      19.56
O       5.27      -0.19      19.61
O       6.56      10.95       0.27
O       4.35      11.33       0.14
O       3.46       0.02       2.04
O       5.69       0.32       1.89
O       3.97       2.09       0.00
O       6.33       1.18      34.82
O       6.06      11.92      33.19
O       3.83      -0.46      33.16
O       7.80       1.05       3.22
O       0.53      12.85       5.07
O       7.73      11.68       3.10
O       1.09       0.90      14.39
O       0.39      12.75      12.50
O       1.36      11.53      14.44
O       8.10      11.27      31.76
O       0.67      -0.45      29.98
O       7.96       0.61      32.06
O       1.20      11.50      20.97
O       0.27      -0.29      22.80
O       1.13       0.85      20.77
O       1.41       3.37      16.95
O       0.97       5.91      16.65
O       1.78       8.36      17.04
O       6.48       9.17      17.94
O       6.92       6.64      18.19
O       6.09       4.20      17.87
O       7.75       3.59       0.67
O       8.20       6.14       0.95
O       7.40       8.58       0.54
O       2.85       8.85      34.82
O       2.41       6.32      34.60
O       3.23       3.88      34.92
