106

Zn       0.01       9.69       7.63
Zn       9.60       0.07       7.61
Zn       0.03       6.48       7.58
Zn       8.00       1.69       5.33
Zn      -1.58       8.10       5.30
Zn       8.01      -1.51       5.28
Zn       1.63       8.10       5.33
Zn       6.39       0.07       7.59
H       9.99      15.05       0.93
H       7.66       4.67       0.31
H      -1.32      -4.27      12.32
H       0.42      -4.17      11.92
H       0.44       5.39      11.17
H       0.37       3.50      12.60
H       7.61      12.34       1.00
H       9.34      12.44       0.59
H       8.85      -2.51      11.15
H      -5.52      -3.81      12.38
H       0.99       4.30       0.57
H      -1.97      -6.88      11.98
H       2.46       5.32       0.69
H      -0.82      10.68       1.76
H      13.54      11.98       0.54
H       5.56       2.85      12.23
H       7.03       3.87      12.35
H       7.58       2.78       1.75
H      -6.71       2.08      11.98
H      14.73       6.09       0.94
C       0.03       8.07       2.85
C       4.45       3.67       6.48
C      -3.55      11.66       6.46
C      11.58      -3.49       6.46
C       3.57       4.50       6.44
C      -3.54       4.52       6.47
C      11.57       3.65       6.45
C       7.99       0.10      10.07
C      -2.53      10.64       6.46
C      10.55      -2.47       6.45
C       2.53       5.51       6.41
C       5.49       2.66       6.50
C      -2.54       5.56       6.48
C       0.04       8.03      10.08
C      10.56       2.61       6.43
C       2.55      10.64       6.52
C       5.47      -2.47       6.40
C       3.56      11.67       6.49
C       4.46      -3.50       6.43
C       7.98       0.14       2.84
C       1.18      -7.21      12.40
C       6.84      15.38       0.52
C       1.30       8.00       0.42
C       6.73       0.17      12.49
C       9.08      15.47       0.51
C      -1.05      -7.30      12.41
C      -7.25       1.24      12.40
C      15.28       6.93       0.51
C       7.99       0.13       1.35
C       0.04       8.04      11.56
C       7.99       0.13      11.55
C       0.04       8.04       1.36
C       7.91       1.34       0.37
C       0.11       6.83      12.54
C      -7.30      -0.98      12.46
C      15.32       9.15       0.46
C       2.32      -6.56      11.83
C       5.70      14.73       1.08
C       2.67       8.00       0.82
C       5.36       0.17      12.09
C      -0.30      -4.16      12.75
C       8.33      12.33       0.17
C      -6.10      -3.04      12.90
C      14.13      11.21       0.01
N       3.25      -6.03      11.37
N       0.10       5.51      12.12
N      -6.61      -2.07      11.93
N      14.63      10.24       0.98
N       7.92       2.66       0.80
N       4.77      14.20       1.54
N       3.80       7.97       1.11
N       4.23       0.20      11.80
O       0.01       8.10       6.46
O       6.86       0.01       9.48
O      -0.12       9.16       9.52
O       8.14      -0.99       3.40
O      -2.68       9.70       5.61
O      10.70      -1.53       7.30
O       1.54       5.29       7.18
O       6.49       2.88       5.74
O       8.01       0.07       6.45
O      -2.69       6.50       5.63
O      10.71       1.67       7.28
O      -1.61       5.43       7.35
O       9.64       2.74       5.57
O       2.75       9.66       5.73
O       5.28      -1.49       7.18
O       1.57      10.82       7.32
O       6.45      -2.65       5.60
O      -1.59      10.79       7.31
O       9.61      -2.62       5.61
O       2.72       6.49       5.63
O       5.30       1.68       7.29
O      -1.12       8.02       3.40
O       9.14       0.15       9.52
O       0.22       6.90       9.49
O       7.81       1.27       3.42
O       1.16       8.16       3.43
