86

Zn       8.17       9.56       8.66
Zn       7.95       6.79       8.59
H       3.70       7.16       7.27
H      12.42       9.19       9.98
H       8.50       2.07       6.64
H       7.63      14.28      10.62
H       8.84       4.59       6.82
H       7.28      11.77      10.43
H       1.46       6.45       6.46
H      14.65       9.92      10.79
H       7.67      10.17      12.92
H       8.69       6.18       4.37
H       7.83      10.18      15.43
H       8.72       6.15       1.85
H       8.08      10.40       1.81
H       8.47       5.93      15.41
H       8.06      10.42       4.34
H       8.30       5.92      12.89
H       9.76      11.53       7.14
H       6.35       4.82      10.11
H      10.23      14.01       7.18
H       5.90       2.33      10.07
H       2.77      11.54      11.72
H       3.03      10.05      12.65
H       4.25      11.33      12.67
H       5.07       9.54      11.20
H       4.75      10.96      10.25
H      13.08       6.33       4.60
H      13.34       4.83       5.52
H      11.86       5.05       4.57
H      11.37       5.40       6.99
H      11.04       6.82       6.05
C       8.23       8.28       5.99
C       7.97       8.07      11.26
C       8.57       7.08       2.41
C       7.94       9.26      14.86
C       8.36       8.27       1.70
C       8.19       8.06      15.55
C       8.22       9.49       2.39
C       8.29       6.85      14.84
C       8.20       9.50       3.78
C       8.20       6.85      13.46
C       6.80       4.17       9.37
C       9.32      12.18       7.88
C       6.55       2.80       9.34
C       9.57      13.55       7.91
C       7.18       2.03       8.35
C       8.95      14.32       8.91
C       8.01       2.66       7.42
C       8.11      13.69       9.84
C       8.21       4.04       7.52
C       7.91      12.32       9.74
C      10.65       7.87       8.57
C       5.47       8.49       8.69
C       3.98       8.56       8.87
C      12.13       7.80       8.38
C      14.11       7.02       7.24
C       2.01       9.34      10.00
C      12.73       6.99       7.35
C       3.39       9.37       9.89
C      12.91       8.57       9.22
C       3.20       7.78       8.02
C      14.32       8.58       9.13
C       1.79       7.78       8.11
C       8.34       8.30       4.50
C       8.00       8.05      12.76
C       8.56       7.10       3.80
C       7.85       9.25      13.48
C       4.25      10.18      10.83
C       3.53      10.80      12.03
C      11.87       6.18       6.41
C      12.58       5.57       5.21
N       8.26       8.36       0.29
N       8.33       7.97      16.95
N       7.62       4.77       8.48
N       8.50      11.59       8.78
N       7.03       0.63       8.19
N       9.10      15.72       9.06
O       8.24       9.41       6.59
O       7.93       6.95      10.66
O       8.11       7.14       6.54
O       8.02       9.22      10.71
O      10.15       9.03       8.70
O       5.97       7.32       8.58
O      10.00       6.77       8.59
O       6.12       9.58       8.65
