130

Zn      18.27      19.48      14.44
Zn      32.63      19.49      14.41
Zn      25.82       6.47      14.40
Zn      25.68      15.50       1.79
Zn      15.27      10.86       8.07
Zn      18.42      11.08       8.24
Zn      16.97      10.10       5.51
Zn      16.98       8.20       8.13
H      17.20      16.85      10.97
H      14.72      16.52      11.43
H      14.53      14.42      10.32
H      15.93      15.26       9.58
H      15.97      13.20      11.84
H      18.35      14.41      10.63
H      18.68      15.70      12.55
H      17.28      14.91      13.33
H      12.89       6.62      12.76
H      11.19       8.49      12.41
H      12.35       9.56      10.62
H      13.58       8.66      11.56
H      12.14       7.76       9.02
H      14.20       6.20      10.40
H      12.58       4.72      11.23
H      11.31       5.60      10.35
H      11.32      11.89       2.48
H      10.35      13.09       4.48
H      12.06      12.51       6.04
H      12.08      11.25       4.77
H      13.81      13.76       4.91
H      14.05      11.66       2.88
H      13.10      13.11       1.31
H      13.05      14.41       2.53
H      22.55       6.02      10.87
H      23.52       8.29      11.44
H      21.83       9.61      10.39
H      21.83       8.02       9.56
H      20.04       8.92      11.87
H      19.83       6.33      10.51
H      20.76       5.28      12.37
H      20.81       6.82      13.25
H      21.01      14.10       2.44
H      22.54      14.72       4.39
H      21.32      13.57       6.07
H      20.15      13.92       4.75
H      21.72      11.34       5.22
H      19.78      11.72       3.06
H      21.49      11.89       1.49
H      22.70      11.57       2.75
H      18.56       4.32       2.40
H      17.97       2.84       4.37
H      17.61       4.58       5.96
H      18.72       5.25       4.72
H      15.68       5.51       4.82
H      17.40       6.79       2.82
H      16.63       5.27       1.22
H      15.51       4.56       2.41
C      16.65      17.54      12.88
C      16.73      16.40      11.88
C      15.52      14.83      10.53
C      16.47      13.69      10.99
C      17.68      15.29      12.37
C      16.61      12.67       9.88
C      10.88       6.02      13.04
C      11.95       6.61      12.14
C      12.66       8.56      10.94
C      13.00       7.70       9.71
C      12.25       5.72      10.91
C      14.19       8.35       9.02
C      10.49      13.75       1.94
C      11.48      12.96       2.77
C      12.22      12.33       4.97
C      13.67      12.71       4.60
C      12.93      13.32       2.37
C      14.64      11.87       5.41
C      23.39       6.07      12.81
C      22.39       6.61      11.80
C      21.67       8.53      10.53
C      20.21       8.29      10.98
C      20.93       6.35      12.26
C      19.26       8.77       9.90
C      23.05      14.15       1.90
C      21.95      13.59       2.78
C      21.09      13.38       5.01
C      20.85      11.87       4.79
C      21.74      12.07       2.54
C      19.63      11.43       5.59
C      17.40       2.65       1.84
C      17.55       3.92       2.67
C      17.70       4.83       4.89
C      16.66       5.91       4.52
C      16.52       5.00       2.28
C      16.88       7.16       5.36
N      15.43      15.81      11.60
N      17.77      14.17      11.44
N      11.57       7.92      11.66
N      13.25       6.30      10.03
N      11.32      13.18       4.19
N      13.94      12.63       3.17
N      22.55       8.04      11.58
N      19.94       6.90      11.35
N      22.22      13.78       4.19
N      20.72      11.50       3.39
N      17.42       3.65       4.09
N      16.61       6.20       3.10
O      34.23      20.43      15.08
O      15.51      17.95      13.25
O      17.79      18.00      13.25
O      17.70      12.64       9.23
O      15.57      11.94       9.68
O       9.95       6.80      13.42
O      11.03       4.79      13.36
O      15.33       7.78       9.14
O      13.95       9.46       8.45
O       9.55      14.35       2.55
O      10.70      13.73       0.68
O      15.40      11.06       4.80
O      14.56      12.05       6.67
O      24.37       6.81      13.12
O      23.15       4.89      13.24
O      18.53       7.91       9.31
O      19.30      10.02       9.66
O      23.97      14.83       2.48
O      22.95      13.91       0.65
O      18.60      11.06       4.94
O      19.74      11.52       6.86
O      17.49       1.54       2.45
O      17.23       2.82       0.59
O      17.00       8.28       4.76
O      16.93       6.96       6.62
O      16.95      10.04       7.47
