61

Al       3.88       5.12       8.87
H       1.73      27.34      12.53
H       1.73      27.39      15.03
H       4.03      23.21       5.44
H       3.93      21.06       4.15
H       3.11       9.17       8.61
H       3.16      11.36       7.40
H       1.71      21.44       8.60
H       1.72      19.25       7.39
H       3.99      23.68      12.60
H       3.87      23.64      15.10
H       0.76       7.46       5.45
H       0.91       9.60       4.17
C       2.89      25.51      10.93
C       1.90       6.90       7.84
C       2.89      23.73       7.84
C       2.22      26.55      13.11
C       2.21      26.58      14.49
C       3.51      22.34       5.84
C       3.46      21.15       5.13
C       2.61       9.29       7.66
C       2.64      10.50       6.98
C       2.22      21.34       7.64
C       2.21      20.12       6.97
C       3.48      24.47      13.14
C       3.42      24.46      14.53
C       1.30       8.31       5.86
C       1.37       9.50       5.15
C       2.86      25.51      12.42
C       2.80      25.52      15.22
C       2.76      25.52      16.63
C       2.69      15.31       0.10
C       2.64      15.30       1.51
C       2.87      22.45       7.09
C       2.82      20.02       5.69
C       2.78      18.80       4.99
C       2.75      17.75       4.37
C       2.67      16.54       3.67
C       1.93       8.19       7.10
C       2.04      10.62       5.71
C       2.13      11.83       4.99
C       2.23      12.86       4.36
C       2.38      14.07       3.65
C       2.76      16.50       2.25
C       2.49      15.31       4.33
C       2.45      14.11       2.24
N       2.41      15.31       5.80
N       2.30      12.84       1.50
N       2.99      17.76       1.54
O       3.83      24.56       7.58
O       3.83      24.87      10.35
O       2.83       6.70       8.70
O       1.96      23.93       8.69
O       0.96       6.08       7.58
O       1.96      26.15      10.33
O       1.61      16.10       6.31
O       3.15      14.52       6.40
O       1.45      12.05       1.92
O       3.04      12.67       0.52
O       2.31      17.98       0.53
O       3.87      18.50       2.00
