62

Al       6.68       9.35       8.74
Al      10.02       9.35       8.74
H       5.01      10.56       7.44
H       8.35       8.15      10.03
H       7.16       5.29       8.70
H       7.17       2.79       8.73
H       2.85       2.79       8.72
H       2.87       5.29       8.69
H      10.51      15.92       8.75
H      10.50      13.42       8.78
H       6.21      13.42       8.77
H       6.20      15.92       8.74
H       6.21       9.04       4.69
H       6.20       8.90       2.19
H       3.83       8.89       2.19
H       3.82       9.04       4.69
H       9.54       9.82      15.28
H       9.55       9.67      12.79
H       7.16       9.67      12.79
H       7.17       9.81      15.28
C       8.35       9.16       6.32
C       8.35      11.78       8.77
C       5.01       9.55      11.16
C       5.01       6.93       8.70
C       5.01       5.44       8.70
C       6.22       4.73       8.70
C       6.23       3.34       8.72
C       5.01       2.62       8.72
C       3.79       3.34       8.72
C       3.80       4.73       8.70
C       5.01       1.21       8.73
C       8.35      17.50       8.74
C       8.35      16.09       8.75
C       9.57      15.37       8.76
C       9.57      13.98       8.77
C       8.35      13.27       8.78
C       7.14      13.98       8.77
C       7.14      15.37       8.75
C       8.35       9.05       4.83
C       7.14       9.01       4.12
C       7.14       8.93       2.74
C       8.35       8.88       2.02
C       2.89       8.92       2.74
C       2.88       9.01       4.12
C       8.35       8.80       0.61
C       5.01       9.91      16.86
C       5.01       9.82      15.45
C      10.48       9.78      14.73
C      10.48       9.70      13.35
C       5.01       9.66      12.64
C       6.22       9.70      13.35
C       6.23       9.78      14.73
O       7.22       9.21       6.90
O       9.49      11.20       8.76
O       3.88       9.50      10.58
O       6.15       7.51       8.72
O       6.15       9.50      10.58
O       3.88       7.51       8.72
O       9.49       9.21       6.90
O       7.22      11.20       8.76
O       5.01       9.90       8.15
O       8.35       8.81       9.32
