140

Zn       5.83       1.27       0.16
Zn      21.05      19.26      16.10
Zn      18.90      20.32      14.06
Zn      12.41      16.45       1.60
H      14.74      12.12       2.64
H      16.17      18.56      15.01
H      11.28      14.67       3.99
H      12.01      11.93       1.67
H       7.53      15.49       2.01
H      13.36      15.74       4.56
H      12.94      20.26      13.89
H       5.80       4.41       0.81
H      22.71      17.06      13.91
H      14.94       6.09      11.45
H      10.46       2.90       0.61
H      23.64      20.81      15.31
H      13.09       8.81      14.27
H       9.61       3.53       2.67
H      20.00      19.22      11.31
H       9.08      14.48       8.14
H      10.12      14.08       5.95
H       6.43      15.21       4.01
H      21.62      15.55       6.20
H      22.04      17.38       7.53
H      21.30      18.57       9.54
H      22.87      15.39      12.00
H       7.42      14.21       9.97
H      15.18      10.14       6.99
H      15.45      11.43       4.92
H      12.42      14.18       6.27
H      12.14      12.89       8.33
H      13.58      10.60      12.46
H      13.57       7.22       9.78
H      13.45       8.76       7.86
H      10.81      10.14       2.18
H      14.79      16.74      15.77
H      10.76       7.91       3.20
H      13.72      14.55      16.00
H       9.84       5.63       3.26
H      16.29      15.57       3.07
H      13.50       3.78       2.22
H      20.97       8.38      15.97
H      23.04       7.27      15.25
C       2.81       1.17       0.09
C      14.39      13.12       2.90
C      17.06      18.38      15.60
C      10.48      14.94       3.32
C      11.40      12.40       0.90
C       8.56      15.36       2.31
C      13.67      14.95       3.88
C       9.71       5.04      14.60
C       9.03       5.69      15.64
C      14.05      13.63       4.16
C      10.09      12.11       0.48
C       9.09      14.89       3.53
C       6.71       3.99       1.21
C      21.96      17.70      13.46
C      14.49       6.60      12.31
C      10.83       1.96       0.22
C      19.25       5.57      15.62
C      13.57       7.98      13.75
C       8.64       3.53       2.18
C      20.59      18.81      12.13
C       7.84       4.62       1.79
C      21.57      17.80      12.11
C      13.88       7.85      12.38
C      19.38       6.88      16.10
C       8.49      14.62       7.24
C       9.08      14.41       5.99
C       8.39      14.71       4.80
C       7.02      15.04       4.91
C       6.44      15.24       6.15
C       7.18      15.12       7.34
C      22.20      16.92       8.51
C      21.78      17.60       9.65
C      22.02      17.07      10.93
C      22.70      15.84      11.02
C      23.13      15.17       9.87
C      22.89      15.70       8.59
C      14.56      11.01       6.83
C      14.71      11.75       5.66
C      13.95      12.91       5.43
C      13.04      13.30       6.43
C      12.88      12.56       7.60
C      13.64      11.40       7.82
C      13.51      11.01      10.36
C      13.56      10.16      11.46
C      13.66       8.78      11.27
C      13.59       8.29       9.95
C      13.52       9.16       8.87
C      13.54      10.56       9.03
C       9.31      10.92       0.84
C       8.21       6.02       1.87
C       9.87       7.67       2.62
C       9.35       6.40       2.65
C       7.60       7.05       1.16
C       8.06       8.39       1.12
C       9.26       8.69       1.84
C       9.86       9.96       1.68
C       8.05      10.65       0.24
C       7.45       9.42       0.37
C      12.95       1.76       2.75
C       0.44       0.21       0.06
C      18.93      15.18       1.84
C       3.81      15.13       0.98
C      22.88       6.49      16.00
C      14.53       1.21       0.69
C      18.01      16.22       1.76
C      16.86      16.41       2.68
C      13.18       2.78       1.93
C      13.39       2.26       0.50
N      11.21       6.30      15.55
N      14.20      14.05       1.95
N      18.16      19.15      15.44
N      10.75      15.45       2.10
N      11.89      13.42       0.18
N       9.56      15.71       1.47
N      13.75      15.20       2.55
N      11.02       5.41      14.56
N       6.87       2.66       1.23
N      21.26      18.57      14.21
N      14.51       6.03      13.53
N      17.20       6.25      16.10
N      17.95       5.20      15.63
N      13.94       6.88      14.43
N       8.06       2.37       1.84
N      20.42      19.27      13.39
N       2.77       2.03       1.22
N      13.51      12.46      10.66
N       6.45       6.74       0.29
N       4.79      14.05       1.15
O       3.84       2.62       1.53
O       1.71       2.14       1.85
O      14.38      13.16      10.13
O      12.64      12.87      11.45
O      13.92      11.63      15.28
O       5.31       6.93       0.75
O       5.45      14.03       2.20
O       4.89      13.24       0.22
F      18.78      14.22       2.77
