210

Mn       5.96      21.00      13.70
Mn       3.41      12.18       6.29
Mn       3.62      20.93      11.34
Mn       1.28      23.00      12.45
Mn       1.06      10.10       7.40
Mn       5.75      10.18       5.05
H       0.03      23.26      18.74
H       2.31      15.42      10.76
H       4.71      15.43      10.77
H       2.37      26.24       7.98
H       7.00       4.61       7.97
H       4.65      12.43       0.01
H       6.04      23.13      16.48
H       3.33      13.53       9.52
H       3.70      17.45      11.79
H       1.36      24.35       9.22
H       0.98       6.63       6.96
H       5.67      12.30       2.26
H       3.83      22.16      17.04
H       5.53      14.50       8.97
H       1.49      17.45      10.67
H       6.17      25.32       9.77
H       3.19       6.63       8.07
H       0.85      11.34       1.70
H       1.52      15.92      13.52
H       0.82      14.57       1.80
H       6.20      23.62       7.02
H       3.86      25.40      16.94
H       5.51      12.80      11.72
H       3.17       5.10       5.22
H       1.45      15.65      15.29
H       0.90      16.24       2.45
H       6.13      22.22       5.91
H       3.79      27.06      16.29
H       5.58      11.40      12.84
H       3.24       4.83       3.46
H       6.96      15.78      14.34
H       2.41      15.35       2.09
H       4.62      22.98       6.49
H       2.28      26.18      16.66
H       0.07      12.16      12.25
H       4.75       4.95       4.40
H       2.92      17.77      14.13
H       6.45      14.17       3.70
H       0.57      22.17       8.32
H       5.26      24.99      15.04
H       4.11      11.35      10.42
H       1.77       6.94       4.62
H       2.03      19.30      14.20
H       0.31      13.47       5.07
H       6.71      21.34       9.62
H       4.37      24.29      13.67
H       4.99      10.52       9.13
H       2.65       8.48       4.55
H       1.90      19.20      16.65
H       0.44      15.64       6.20
H       6.58      19.27       8.30
H       4.24      26.47      12.54
H       5.12       8.45      10.45
H       2.78       8.37       2.09
H       2.59      17.54      16.66
H       6.78      16.48       4.78
H       0.24      20.09       6.86
H       4.93      27.30      13.97
H       4.44       9.27      11.88
H       2.10       6.72       2.08
H       4.68      18.39      15.67
H       4.69      15.20       5.01
H       2.34      20.53       8.09
H       7.02      26.02      13.73
H       2.35       9.70      10.66
H       0.00       7.56       3.08
H       4.03      19.97      15.72
H       5.33      14.45       6.41
H       1.69      19.69       9.44
H       6.37      25.27      12.33
H       2.99       8.87       9.31
H       0.65       9.15       3.03
H       4.54      18.30      18.11
H       4.83      17.36       6.16
H       2.19      18.45       6.80
H       6.88      28.18      12.58
H       2.49       7.63      11.95
H       0.15       7.48       0.63
H       5.47      19.71      17.51
H       3.89      16.13       7.08
H       3.13      18.27       8.32
H       0.79      26.95      11.67
H       1.55       7.45      10.43
H       6.24       8.89       1.24
H       3.81      19.95      18.14
H       5.55      16.56       7.60
H       1.47      17.61       8.21
H       6.16      27.38      11.14
H       3.21       6.78      10.54
H       0.87       9.13       0.61
C       6.73      18.24      14.88
C       2.63      14.59       4.49
C       4.39      21.28       8.35
C       2.05      25.41      14.25
C       0.29      10.46      10.39
C       4.98       7.42       3.86
C       0.96      16.16      14.44
C       1.39      15.25       2.47
C       5.64      22.71       6.77
C       3.30      26.07      16.28
C       6.07      11.88      11.97
C       3.73       5.33       4.31
C       2.15      18.33      14.68
C       0.19      14.37       4.47
C       6.83      21.41       8.53
C       4.49      25.19      14.28
C       4.88      10.59      10.21
C       2.53       7.50       4.06
C       2.59      18.51      16.14
C       6.77      15.54       5.36
C       0.25      20.06       7.96
C       4.93      26.37      13.39
C       4.43       9.23      10.78
C       2.09       7.69       2.61
C       4.47      19.27      17.59
C       4.89      16.42       6.73
C       2.13      18.42       7.89
C       6.82      27.24      12.01
C       2.55       7.60      10.85
C       0.21       8.44       1.16
C       0.83      22.59      15.47
C       1.51      12.92       8.56
C       5.51      18.60      11.83
C       3.17      23.74      10.19
C       6.19       7.77       6.91
C       3.85      11.77       3.28
C       2.22      22.30      15.66
C       0.12      13.23       8.40
C       6.90      18.58      11.49
C       4.56      24.05      10.35
C       4.81       7.76       7.26
C       2.46      11.48       3.09
C       2.77      22.40      16.95
C       6.59      14.30       9.12
C       0.43      17.42      10.92
C       5.11      25.12       9.62
C       4.25       6.59       7.82
C       1.91      11.57       1.80
C       2.03      22.72      18.08
C       0.31      15.12       9.97
C       6.71      16.27      10.64
C       4.37      25.94       8.77
C       5.00       5.45       8.10
C       2.65      11.90       0.67
C       0.65      22.98      17.88
C       1.69      14.82      10.10
C       5.33      16.31      10.96
C       2.99      25.64       8.65
C       6.37       5.49       7.78
C       4.03      12.16       0.86
C       0.08      22.92      16.63
C       2.26      13.76       9.42
C       4.76      17.43      11.54
C       2.42      24.58       9.33
C       6.95       6.61       7.21
C       4.61      12.10       2.12
C       3.11      21.82      14.58
C       6.26      12.54       7.44
C       0.77      19.75      11.60
C       5.45      23.36      11.30
C       3.92       8.93       7.14
C       1.58      10.99       4.16
N       0.90      17.59      14.62
N       1.44      14.69       3.80
N       5.58      21.83       7.93
N       3.24      25.51      14.94
N       6.13      11.01      10.82
N       3.79       6.77       4.12
N       3.97      19.05      16.22
N       5.40      15.34       5.87
N       1.63      19.72       8.39
N       6.31      26.16      12.88
N       3.06       8.89      10.35
N       0.72       8.23       2.53
O       6.77      19.53      14.99
O       2.60      14.04       5.66
O       4.42      20.55       9.42
O       2.08      24.86      13.09
O       0.26       9.72       9.33
O       4.94       8.70       3.76
O       5.68      17.53      15.03
O       3.69      15.07       3.95
O       3.33      21.51       7.67
O       0.99      25.90      14.79
O       1.35      10.68      11.08
O       6.03       6.71       3.71
O       0.22      22.57      14.29
O       2.12      11.91       7.95
O       4.91      19.63      12.40
O       2.56      22.73      10.80
O       6.80       8.81       6.34
O       4.46      11.75       4.46
O       2.70      21.72      13.38
O       6.67      11.55       6.76
O       0.36      20.84      12.12
O       5.04      22.37      11.99
O       4.32      10.02       6.62
O       1.98      10.90       5.37
O       4.30      21.44      14.92
O       5.07      13.02       7.28
O       1.96      19.65      11.11
O       6.64      23.84      11.47
O       2.73       8.83       7.64
O       0.38      10.61       3.83
