95

Zn      11.78       9.50       8.58
Zn       9.66      11.88       8.57
Zn      11.96      11.89      10.75
Zn       9.66       9.71      10.99
H      11.95       5.40       8.36
H      18.55      12.17      10.79
H      12.06      16.07      11.32
H       3.16      10.24      12.10
H      12.60      12.48      14.78
H      11.36       8.50       4.49
H       9.59      12.41       4.43
H      11.93      13.08      19.27
H      10.03       9.35      17.67
H      11.12       8.34       2.01
H       9.72       9.33      15.19
H       9.99      18.42       7.47
H       9.61       8.18       0.19
H      12.91      12.53      17.26
H       9.91      15.93       7.61
H       9.42      12.30       1.94
H      10.82       0.97       8.28
H       9.46       3.09      11.99
H      12.08      18.56      11.23
H       9.38       5.58      11.79
H      10.75      20.53      11.35
H      12.02       2.91       8.53
H      16.06      12.12      10.95
H       5.64      10.18      11.91
H      20.53      11.04      11.18
H      18.40       9.20       7.67
H       2.94      11.70       8.04
H      15.91       9.15       7.86
H       0.98      10.40       8.17
C       7.19      10.90       9.86
C      10.73       1.37      10.35
C      10.98      20.13       9.29
C      14.35      10.63       9.51
C      10.97      15.85       9.48
C      15.84      10.62       9.42
C      16.59      11.47      10.25
C      17.98      11.49      10.17
C      18.65      10.67       9.24
C      17.89       9.84       8.40
C      16.50       9.80       8.50
C      10.72       2.82      10.25
C       3.50      11.35       8.90
C       4.89      11.34       8.83
C       5.03      10.52      11.08
C      10.59      10.54       6.09
C       3.65      10.55      11.18
C       2.85      10.94      10.08
C      20.11      10.67       9.14
C       1.40      10.91      10.17
C       5.69      10.93       9.90
C      11.13      10.91      14.84
C      10.00       3.60      11.18
C      12.03      11.82      15.43
C      12.19      11.85      16.81
C      11.47      10.97      17.64
C      10.59      10.04      17.03
C      10.98      10.88      13.36
C      10.41      10.03      15.66
C      10.77       9.23       2.54
C      10.91       9.31       3.92
C       9.93      11.53       3.88
C       9.83      11.46       2.50
C       9.95       4.98      11.08
C      10.22      10.30       1.80
C      11.62      11.00      19.09
C      10.05      10.23       0.36
C      10.47      10.46       4.61
C      10.93      14.37       9.55
C      10.65       7.12       9.95
C      10.65       5.64      10.05
C      11.39       4.88       9.13
C      11.42       3.49       9.23
C      11.59      17.99      10.45
C      11.58      16.60      10.50
C      10.39      16.52       8.39
C      10.43      17.91       8.32
C      11.00      18.67       9.36
O      10.76      10.73       9.72
O      10.14      13.77       8.74
O       9.89       7.77      10.76
O      11.67      13.80      10.42
O      11.40       7.64       9.06
O      11.32       9.66       6.67
O      10.11      10.08      12.87
O       7.76      11.64       8.99
O      13.83      11.46      10.33
O       7.75      10.15      10.73
O      13.72       9.81       8.76
O       9.95      11.49       6.66
O      11.74      11.66      12.69
F       5.44      11.75       7.66
