50

Al       3.60       4.78       8.73
Al       0.26       4.77       8.77
H      -1.41       6.26       9.67
H       1.90       4.11       7.14
H       0.69       0.65       8.43
H       3.14       0.82       9.26
H      -2.67       8.78       8.42
H      -2.54       4.07      12.62
H      -2.30       4.05      15.11
H       0.18       5.07      15.46
H       0.69       4.85       2.12
H       3.23       5.72       4.74
H       3.18       5.95       2.25
C       1.98       4.56      11.14
C       1.89       7.21       8.79
C      -1.42       5.01       6.32
C      -1.37       2.37       8.80
C       1.91       8.70       8.83
C      -1.41       0.88       8.83
C       0.77       9.48       9.09
C      -0.25       0.13       8.61
C       4.04       0.24       9.07
C      -3.55       9.38       8.60
C       2.04       4.53      12.63
C      -3.40       4.27      13.26
C      -3.26       4.26      14.64
C       2.29       4.55      15.46
C       1.05       4.83      14.85
C       0.95       4.81      13.47
C      -4.28       4.57      16.87
C      -1.44       5.46       0.59
C      -1.41       5.41       2.01
C      -0.22       5.06       2.68
C      -0.22       4.96       4.06
C      -1.37       5.18       4.84
C       4.13       5.55       4.15
C       4.10       5.67       2.77
O       3.10       4.43      10.54
O       0.76       6.64       8.65
O      -0.32       4.80       6.92
O       4.19       2.97       8.62
O      -2.57       5.08       6.87
O      -0.23       2.93       8.92
O       0.86       4.72      10.58
O       3.02       6.62       8.89
O      -1.41       5.35       9.32
O       1.93       4.25       8.10
F      -0.43       8.90       9.38
F      -0.27       5.11      12.96
F       0.96       4.60       4.63
