128

Zn       7.80       7.73       9.71
Zn       7.74      10.56       9.66
H      14.45       7.24       9.50
H       9.16      12.55      11.12
H       9.53       3.29      11.41
H       9.38      15.01      11.35
H       6.41       2.90       8.43
H       6.46      15.35       8.16
H       7.81       1.25       7.77
H       7.64      17.13       7.70
H       8.35      17.04      11.96
H       8.53       1.17      12.02
H       0.73       7.46       9.00
H      14.81       9.14       7.95
H       1.07       9.77       7.99
H       0.77      11.16       9.03
H       0.99       7.19      10.72
H      14.52      10.81       8.45
H      14.71       7.51      11.22
H       8.15      10.92      16.56
H       5.97       7.23      16.20
H       7.25       6.96      18.22
H       6.33      11.17      18.16
H       5.72       6.56       8.33
H       7.48       7.00       1.19
H       6.22      11.67       7.64
H       0.15       8.22      12.82
H       2.29      11.14      12.11
H      13.26       9.33      12.43
H      14.79      12.25      12.13
H      10.97      12.26      12.30
H      11.06      12.83      13.99
H      12.25      11.67      13.37
H      10.67      10.37      14.73
H      10.31      10.00      13.04
H       6.53      11.20       1.14
H       8.41      11.64      13.07
H       8.83      12.09      14.73
H       4.59       5.90      11.42
H       4.07       5.11      12.94
H       3.00       6.27      12.11
H       4.07       7.42      14.05
H       4.67       8.12      12.56
H       6.72       6.64      12.70
H       6.12       5.99      14.23
H       7.94      11.11       2.93
H       6.26       7.14       3.10
H       8.22      11.09       5.40
H       6.61       7.11       5.56
H       9.22       5.76      11.25
C       7.67       9.07       7.10
C       6.54       8.04      15.74
C       7.02       9.08      16.55
C       7.46       9.09      13.76
C       7.00       7.89      18.75
C       6.52      10.25      18.72
C       5.15       9.18       9.77
C       7.27       7.92       0.64
C       6.79      10.28       0.62
C       7.02       9.11       1.36
C       6.83       9.07      18.01
C      14.99      10.17      11.27
C       7.62      10.24       3.51
C       6.71       8.00       3.59
C       7.79      10.23       4.88
C       6.90       7.98       4.97
C       7.45       9.09       5.63
C       7.09       9.12       2.83
C       8.63       5.08      10.65
C       8.58      13.22      10.50
C       8.79       3.70      10.73
C       8.68      14.60      10.62
C       0.52       9.97      11.44
C       8.02       2.86       9.91
C       7.93      15.43       9.77
C       7.66       9.12      12.27
C       7.08       3.48       9.07
C       7.10      14.80       8.84
C       6.96       4.86       9.05
C       7.05      13.41       8.76
C       7.97       0.69       8.69
C       7.77      17.65       8.66
C       7.98      16.90       9.83
C      13.00       9.33      10.01
C       8.15       1.39       9.90
C       8.20      17.59      11.03
C       8.41       0.65      11.07
C      10.35       9.20       9.80
C       0.48       7.85      10.00
C       0.53      10.10       8.88
C      15.03       9.88       8.72
C      14.98       7.88      10.22
C      11.79       9.25       9.91
C       1.06       9.28      10.09
C       2.51       9.26      10.05
C      14.45       9.34      10.06
C       5.92       5.48       8.17
C       6.19      12.77       7.71
C       0.90       9.01      12.58
C       1.31      11.26      11.60
C      14.26       9.80      12.56
C      14.58      11.70      11.19
C       8.83      11.25      14.01
C      10.29      10.81      13.79
C      11.19      11.95      13.34
C       3.72       9.21       9.92
C       6.12       6.88      13.59
C       4.68       7.20      13.16
C       4.05       6.06      12.37
C       7.96      10.15      14.56
C       6.75       8.02      14.36
C       7.73      10.12      15.94
N       7.74       5.66       9.82
N       7.77      12.62       9.59
O       7.48       7.96       7.71
O       5.51      13.46       6.95
O       1.97       9.04      13.15
O       0.93      12.34      11.18
O      14.69      10.11      13.67
O      13.94      12.17      10.28
O       8.02      10.16       7.67
O       5.74       8.08      10.02
O       5.70      10.27       9.40
O       8.09       8.06      11.70
O       7.36      10.20      11.66
O       9.83       8.09       9.48
O       9.74      10.30      10.04
O       5.30       4.82       7.34
