103

Al       6.12      10.96       8.83
Al       2.76      11.00       8.84
Al       2.34       5.42      17.74
Al       5.63       0.05       0.03
H       0.26      15.09       6.43
H       2.34      15.79       4.61
H       3.29      13.11       4.78
H       5.30      14.53       4.20
H       4.99      10.24      13.60
H       5.74       6.84      11.64
H       6.47       5.76      14.61
H       1.38       6.46      14.71
H       0.60       6.27      13.11
H       2.20      12.91       1.57
H       2.11      10.62       1.19
H       0.98      10.40       2.55
H       2.69      10.73       2.88
H       5.76      11.26       5.27
H       4.78      10.28       3.32
H       5.76      11.37       2.30
H       4.42      12.04       3.25
H       5.04       4.47      12.59
H       3.68      19.94      12.74
H       4.15       4.40      14.15
H       1.76       6.29      10.90
H       2.44       7.69      10.00
H       0.67       7.57      10.26
H       1.40       8.99      14.65
H       1.96      10.38      16.49
H       3.64      10.48      15.93
H       3.05       8.98      16.69
H       4.47      12.71       9.04
H       1.09       9.59       9.81
H       4.08      15.01       0.89
H       0.63       7.08      17.15
C       4.38       9.56      10.79
C       4.47       9.15       7.27
C       1.13      12.24       6.81
C       1.03      12.87      10.37
C       1.03      13.97      11.30
C       0.99      14.92      12.07
C       0.94      15.96      12.91
C       0.87      16.92      13.69
C       0.81      17.95      14.54
C       0.76      18.89      15.33
C       1.72      14.89       4.56
C       0.55      14.53       5.53
C       1.08      13.04       5.57
C       2.25      13.41       4.62
C       1.30      13.06       3.37
C       0.14      12.69       4.37
C       6.33      14.20       4.32
C       0.78      14.56       3.36
C       2.94       8.05      12.54
C       3.72       6.73      12.90
C       4.09       7.26      14.35
C       3.26       8.66      13.95
C       4.63       9.23      13.42
C       5.38       7.90      13.74
C       5.05       7.34      12.31
C       4.29       8.67      11.97
C       4.41       8.08       6.32
C       4.30       7.14       5.53
C       4.19       6.10       4.69
C       4.10       5.14       3.93
C       4.02       4.08       3.11
C       3.97       3.11       2.36
C       3.98       1.97       1.47
C       4.01       6.60      15.66
C       0.73      19.98      16.27
C       0.75      15.30       2.09
C       0.43       6.49      14.17
C       1.85      10.97       2.20
C       5.23      11.29       3.26
C       4.05       4.40      13.06
C       1.65       7.37      10.70
C       2.77       9.82      16.02
N       1.53      12.39       2.14
N       6.17      11.46       4.36
N       2.34       9.38      14.70
O       3.37       9.47       7.82
O       5.52       9.73      10.22
O       6.62      12.34      10.13
O       5.61       9.67       7.49
O       6.74      12.06       7.40
O       3.28      10.11      10.45
O       4.45      11.79       8.73
O       2.27      11.83       7.22
O       2.16      12.55       9.87
O       1.08      10.19       9.04
O       5.08       6.51      16.36
O       2.87       1.63       0.96
O       1.88      15.67       1.63
O       2.86       6.19      16.08
O       1.86      20.32      16.76
O       5.13       1.44       1.29
O       4.07      15.70       0.21
O       6.31      20.49      16.52
O       6.35      15.46       1.51
O       0.66       6.21      17.58
O       6.63       7.83      14.32
O       3.20       5.48      12.62
O       1.71       8.13      11.93
