96

Co       0.24       1.68      19.29
Co       5.72       1.90       7.54
Co       3.22       5.50      20.96
Co       2.74       5.71       5.87
H       5.88       2.81      22.68
H       0.96       0.71      23.16
H       2.36       1.68      22.67
H       5.58       2.73      16.58
H       0.79       2.83      14.36
H       4.14       0.88      16.26
H       2.80       0.80      18.36
H       0.07       3.03       4.15
H       5.03       0.91       3.67
H       3.62       1.87       4.14
H       0.42       2.83      10.28
H       5.25       2.83      12.52
H       1.81       1.08      10.56
H       3.12       1.10       8.43
H       2.90       4.37      17.57
H       3.94       6.47      17.08
H       5.34       5.50      17.57
H       2.59       4.45      23.66
H       3.77       4.35      25.88
H       1.16       6.30      23.98
H       5.78       6.38      21.88
H       3.06       4.58       9.26
H       2.05       6.70       9.74
H       0.63       5.74       9.27
H       3.40       4.78       3.13
H       2.26       4.78       0.90
H       4.80       6.53       2.86
H       0.13       6.51       4.98
C       1.23       3.37      21.05
C       0.41       2.33      21.82
C       1.41       1.26      22.32
C       1.74       0.23      21.24
C       0.60       2.31      16.44
C       1.26       2.37      15.23
C       2.56       1.84      15.13
C       3.14       1.29      16.28
C       2.40       1.24      17.46
C       4.72       3.57       5.77
C       5.55       2.54       5.01
C       4.57       1.46       4.51
C       4.23       0.44       5.59
C       5.39       2.43      10.40
C       4.75       2.44      11.63
C       3.43       1.93      11.72
C       2.83       1.47      10.54
C       3.55       1.48       9.36
C       4.22       3.81      19.19
C       3.40       4.85      18.43
C       4.39       5.92      17.93
C       4.73       6.95      19.00
C       3.59       4.87      23.80
C       4.25       4.81      25.01
C       5.55       5.34      25.11
C       0.15       5.89      23.96
C       5.38       5.94      22.79
C       1.73       4.03       7.64
C       2.56       5.07       8.40
C       1.59       6.15       8.91
C       1.25       7.17       7.83
C       2.40       5.18       3.01
C       1.76       5.17       1.78
C       0.45       5.68       1.70
C       5.81       6.14       2.87
C       0.56       6.13       4.06
N       1.15       1.74      17.54
N       3.35       1.85      13.96
N       4.81       1.94       9.28
N       2.66       1.88      12.89
N       4.14       5.44      22.70
N       0.36       5.34      26.28
N       1.82       5.67       4.13
N       5.64       5.73       0.53
O       1.29       3.15      19.79
O       5.44       1.74      20.98
O       1.53       0.42      20.00
O       2.28       7.00      21.71
O       1.85       4.29      21.66
O       4.66       3.36       7.03
O       0.53       1.96       5.85
O       4.45       0.62       6.83
O       3.70       7.20       5.11
O       4.09       4.49       5.16
O       4.27       4.03      20.45
O       2.45       5.44      19.26
O       4.51       6.76      20.24
O       5.26       0.18      18.53
O       4.84       2.89      18.58
O       1.68       4.25       6.38
O       3.51       5.65       7.56
O       1.46       6.99       6.59
O       0.71       0.41       8.30
O       1.11       3.12       8.26
