246

Cu       6.98       6.91      13.10
Cu       5.05       9.35      12.48
Cu       4.05       6.92      14.30
Cu      11.79      19.55       9.73
Cu      11.79      18.48      12.72
Cu      21.20      -4.89      12.14
Cu       5.04      24.30       1.77
Cu      -5.37      10.73      21.76
Cu      -2.41      11.78      22.35
Cu      13.47       2.31      21.39
Cu     -11.70       1.31      22.00
Cu      14.47      -0.45      20.18
Cu       2.34       1.28       1.06
Cu       0.40      -0.50       2.85
Cu      -0.61       2.30       1.65
Cu      -2.30      18.54      10.32
Cu       7.15      -4.84      10.87
Cu       7.14      -6.91      13.31
Cu      -8.98       9.28      10.43
Cu      18.12       6.86       8.65
Cu      -7.04       6.84       9.85
Cu       8.82      10.72       1.17
Cu      11.77      11.77       0.61
Cu       0.42      -2.17      21.16
H       9.58       7.81      11.52
H       6.96      11.16      10.67
H       4.08       4.16      15.92
H       8.08       4.16      14.26
H       2.45      11.18      12.51
H       1.09       7.88      14.97
H      11.79      16.82       8.12
H      11.79      15.33      12.19
H      21.18      -2.13      10.52
H      11.77      21.53       7.25
H      21.19      -8.02      15.90
H      -6.94      -3.76      15.11
H       2.47      23.37       3.37
H      -8.34       9.67      22.28
H       9.60      25.90       0.99
H      16.34      -1.58       4.25
H      -5.35      10.72      18.58
H      -1.34      12.14      19.38
H     -14.68       5.06      22.96
H      -1.24      16.94       0.81
H      11.86      -1.34      18.56
H      10.52       2.43      20.23
H      -9.11      -0.53      21.99
H      16.37      -2.91      19.52
H       4.95      -0.53       1.05
H      -7.11      23.54       3.48
H      -0.59       5.07       0.05
H      -5.97      -9.56      22.25
H      -2.20      -1.41       4.44
H      24.56       2.37       2.82
H      -2.31      18.51       7.15
H       7.16      -3.73       7.88
H      -2.30      16.83      14.90
H      -2.32      15.41      10.80
H       7.15      -2.08      12.47
H       7.14      -4.90      15.76
H      16.57      11.14      10.43
H      15.14       7.84       8.01
H      -4.44       7.78      11.46
H      -7.11      11.11      12.23
H      18.13       4.10       7.07
H      -5.98       4.08       8.70
H       8.79      10.72       4.34
H      12.82      12.15       3.60
H      -2.19      -3.12      19.58
H       5.87       9.66       0.69
H       4.96      -0.55      22.01
H       2.32      -1.51      18.71
C       8.77       8.52      11.44
C       8.72       9.75      10.76
C       7.42      10.23      11.01
C       5.01       4.37      15.40
C       6.20       3.62      15.36
C       7.06       4.38      14.55
C       2.34      10.27      13.08
C       1.22       9.81      13.81
C       1.64       8.58      14.34
C      11.79      16.68       9.20
C      11.79      15.49       9.95
C      11.79      15.92      11.29
C      21.18      -3.01       9.89
C      21.18      -3.08       8.48
C      21.19      -4.47       8.21
C      -6.93      -7.03      15.47
C      -6.94      -5.78      16.12
C      -6.93      -4.84      15.06
C       2.34      23.33       2.29
C       1.22      22.93       1.54
C       1.62      23.09       0.20
C      18.19      -0.90       1.62
C      18.13      -0.94       3.03
C      16.82      -1.40       3.29
C      -4.41      11.05      19.02
C      -3.23      11.47      18.37
C      -2.36      11.78      19.43
C      -4.34      17.76       0.05
C      -3.16      18.13       0.73
C      -2.27      17.07       0.48
C      11.75      -0.39      19.07
C      10.64       0.47      19.11
C      11.06       1.54      19.93
C      -9.93      -0.94      21.41
C      -9.98      -2.15      20.69
C     -11.29      -2.16      20.15
C      -5.30      25.55       1.62
C      -5.35      24.33       2.33
C      -6.65      24.30       2.86
C      -9.05      -8.70      22.98
C      -7.87      -8.35      22.31
C      -6.99      -9.42      22.58
C      25.81      -0.45       3.93
C      24.69       0.40       3.90
C      25.11       1.48       3.10
C      -2.30      19.51       7.56
C      -2.29      20.75       6.90
C      -2.28      21.70       7.94
C      -2.30      16.71      13.82
C      -2.31      15.53      13.06
C      -2.32      15.98      11.72
C       7.15      -2.95      13.11
C       7.14      -3.02      14.52
C       7.14      -4.40      14.80
C      16.43      10.22       9.86
C      15.30       9.77       9.15
C      15.71       8.53       8.62
C      -5.26       8.49      11.51
C      -5.33       9.73      12.18
C      -6.63      10.19      11.91
C      19.07       4.31       7.58
C      20.25       3.54       7.61
C      21.12       4.30       8.41
C       9.73      11.06       3.92
C      10.90      11.47       4.59
C      11.79      11.79       3.54
C      -2.30      -3.15      20.66
C      -3.42      -3.55      21.42
C      -2.99      -3.38      22.75
C       4.14      -0.85      21.36
C       4.09      -0.88      19.95
C       2.79      -1.34      19.67
C       7.02       0.06      17.23
C      21.06      -0.03       5.75
C      -2.42      11.63      14.35
C      -7.05      -4.96      20.14
C      11.68      11.61       8.61
C      -2.40      21.54       2.88
C       9.74      10.37      10.01
C      10.62      10.91       9.37
C      11.77      14.17       9.47
C      11.75      13.02       9.07
C      -0.03      22.47       2.02
C      -1.10      22.07       2.42
C      -2.92      19.30       1.48
C      -2.70      20.30       2.12
C       6.47       2.39      16.00
C       6.70       1.33      16.55
C       9.40       0.31      18.48
C       8.32       0.19      17.92
C      21.15      -2.03       7.55
C      21.12      -1.12       6.74
C      19.13      -0.61       3.96
C      20.00      -0.33       4.76
C      -0.03      10.44      13.98
C      -1.11      10.98      14.13
C      -2.97      11.54      16.99
C      -2.74      11.59      15.80
C      -8.97      -3.11      20.52
C      -8.11      -3.95      20.36
C      -6.96      -5.51      17.50
C      -6.99      -5.27      18.69
C      -4.33      23.37       2.49
C      -3.46      22.54       2.65
C      -2.31      21.00       5.51
C      -2.33      21.23       4.32
C      14.06      10.41       8.99
C      12.98      10.95       8.84
C      11.15      11.53       5.97
C      11.37      11.58       7.16
C      -7.60      -7.19      21.55
C      -7.36      -6.19      20.90
C      -4.67      -4.02      20.97
C      -5.74      -4.43      20.59
C      -2.33      14.19      13.51
C      -2.36      13.04      13.90
C      -4.33      10.36      12.94
C      -3.47      10.92      13.59
C      23.44       0.23       4.53
C      22.36       0.10       5.07
C      20.50       2.31       6.98
C      20.74       1.25       6.44
C       5.10      -0.54      19.03
C       5.96      -0.25      18.22
C       7.12      -1.95      15.44
C       7.09      -1.04      16.24
N       6.75       9.36      11.78
N       7.59       8.29      12.05
N       6.43       5.49      14.15
N       5.16       5.49      14.67
N       2.91       8.33      13.96
N       3.34       9.38      13.18
N      11.79      17.27      11.33
N      11.80      17.74      10.03
N      21.21      -5.15       9.37
N      21.20      -4.25      10.41
N      21.20      -5.49      13.88
N      21.20      -6.84      14.13
N       2.89      23.54       0.16
N       3.33      23.69       1.46
N       6.74      24.90       2.14
N       7.59      25.20       1.10
N      -2.98      11.57      20.61
N      -4.25      11.12      20.35
N     -12.27       2.92      22.70
N     -13.55       3.35      22.43
N      12.33       1.32      20.34
N      12.75       0.13      19.81
N     -11.95      -1.05      20.53
N     -11.10      -0.30      21.31
N       2.11      -1.10       2.50
N       2.95      -0.33       1.73
N       1.78       2.89       0.36
N       0.51       3.34       0.61
N      -1.74       1.28       2.70
N      -1.31       0.08       3.21
N      -2.28      21.07       9.13
N      -2.29      19.71       8.89
N      -2.31      17.33      11.70
N      -2.30      17.78      13.00
N       7.14      -5.09      13.65
N       7.15      -4.20      12.60
N      16.98       8.27       8.99
N      17.43       9.32       9.75
N      -7.28       9.30      11.14
N      -6.43       8.24      10.89
N      20.51       5.43       8.81
N      19.23       5.43       8.29
N      11.19      11.58       2.36
N       9.92      11.13       2.59
N      -1.73      -2.92      22.77
N      -1.30      -2.78      21.47
N       2.13      -1.56      20.82
N       2.97      -1.26      21.87
