46

Zn       4.29       1.01      10.02
Zn       8.89      10.07       0.27
P       1.78       1.12       8.14
P       6.79       2.88       9.78
P      11.40       9.97       2.15
P       6.39       8.20       0.51
H      11.21       3.29       7.92
H       6.58       2.94       7.60
H       1.97       7.79       2.37
H       6.60       8.14       2.69
H       5.76      10.45       6.82
H       2.82       3.51       0.37
H       7.42       0.63       3.47
H      10.36       7.57       9.92
H       8.57       1.41       6.70
H       9.21       4.29       9.38
H       4.60       9.67       3.59
H       3.97       6.79       0.91
C       4.31      10.44       5.56
C       4.26       4.76       0.29
C       8.87       0.64       4.73
C       8.92       6.32      10.00
C       1.39       0.72       6.44
C       7.18       4.60      10.05
C      11.79      10.37       3.85
C       6.00       6.48       0.24
C       9.30       0.97       6.02
C       8.49       5.01       9.77
C       3.88      10.12       4.27
C       4.69       6.07       0.52
O      10.62       2.67       8.39
O       7.16       2.52       8.25
O       2.56       8.41       1.90
O       6.01       8.57       2.04
O       3.29       0.92       8.31
O       5.28       2.73       9.99
O       9.88      10.16       1.98
O       7.90       8.35       0.30
O      12.09      10.65       9.08
O       5.69       1.24       0.34
O       1.09       0.43       1.21
O       7.48       9.84       9.95
O       5.60      10.15       5.89
O       2.97       4.46       0.60
O       7.58       0.93       4.40
O      10.21       6.62       9.69
