102

Zn       1.53      14.83      13.65
Zn       6.80      13.69       0.00
Zn       3.78      12.65       1.14
Zn       3.78       2.15      12.55
Zn       9.82       2.18      12.51
Zn       9.82      12.69       1.10
H       3.31      13.51      12.51
H       3.27      13.47       5.19
H      11.29      13.92       3.79
H       3.80      13.89       7.59
H       2.48      11.05      12.29
H       3.25       8.71      11.95
H      10.64       8.57       1.25
H       4.26       1.24       1.22
H       4.30       8.54       0.65
H       8.34       9.90       0.09
H       3.76       6.12       0.44
H       5.09       1.67       3.66
H       4.32       2.20       5.96
H       8.99      12.87       5.21
H      10.29       1.32       1.14
H      10.33       1.36       8.45
H       2.31       0.91       9.86
H       9.80       0.94       6.06
H      11.12       3.78       1.36
H      10.35       6.13       1.69
H       2.96       6.27      12.40
H       9.34      13.59      12.43
H       9.30       6.29      13.00
H       5.26       4.94      13.56
H       9.84       8.72      13.21
H       8.51      13.16       9.99
H       9.28      12.64       7.68
H       4.61       1.96       8.43
C       1.75      13.30       2.99
C       1.30      13.67       4.36
C       2.23      13.72       5.40
C       1.84      14.09       6.70
C      12.01      13.99       4.61
C       2.76      14.15       7.78
C      11.68      10.78       0.13
C      12.92      10.51      13.61
C       1.97      10.22      12.78
C       2.39       8.92      12.59
C      11.49       8.33       0.60
C       1.71       7.84      13.22
C       5.82      10.75       0.64
C       6.26       9.35       0.39
C       5.34       8.31       0.42
C       5.73       6.98       0.16
C       7.62       9.08       0.09
C       4.80       5.90       0.19
C       7.95      13.81       2.91
C       6.72       0.40       4.31
C       5.60       1.25       4.52
C       5.18       1.54       5.80
C       8.14      13.54       5.39
C       5.86       1.01       6.93
C      11.85       1.54      10.66
C      12.30       1.16       9.28
C      11.37       1.11       8.25
C      11.76       0.74       6.94
C       1.59       0.84       9.04
C      10.84       0.68       5.87
C       1.92       4.05      13.52
C       0.68       4.33       0.04
C      11.63       4.61       0.87
C      11.21       5.91       1.06
C       2.11       6.50      13.04
C      11.89       6.99       0.43
C       7.78       4.08      13.00
C       7.34       5.49      13.26
C       8.26       6.52      13.22
C       7.87       7.85      13.49
C       5.97       5.76      13.56
C       8.79       8.93      13.46
C       5.65       1.02      10.73
C       6.88      14.43       9.34
C       8.00      13.58       9.12
C       8.42      13.29       7.85
C       5.45       1.30       8.26
C       7.74      13.83       6.72
O       3.45      14.23      13.15
O       0.88      13.19       2.07
O       3.01      13.10       2.84
O      10.66      10.96       0.89
O      13.06      12.84      13.15
O       4.12       0.55       0.55
O       6.68      11.67       0.67
O       4.55      10.91       0.83
O       8.97      13.03       2.80
O       6.57       0.66       1.95
O      10.15       0.60       0.50
O      12.72       1.64      11.58
O      10.59       1.73      10.81
O       2.94       3.88      12.76
O       0.54       2.00       0.50
O       9.48      14.28      13.09
O       6.91       3.16      12.98
O       9.05       3.92      12.82
O       4.62       1.80      10.84
O       7.02      14.17      11.70
