106

Zn      16.51       1.10       0.91
Zn       1.63       1.11       1.01
Zn       8.72       5.39      13.52
Zn       8.67      14.33       0.88
Zn      19.37       9.88       7.22
Zn      16.14       9.77       7.26
Zn      17.71      12.61       7.22
Zn      17.76      10.82       9.85
H      18.02       5.67       1.67
H      17.84       5.19       6.62
H      22.10       5.72      12.30
H      22.52      10.51      11.01
H      24.19      14.73       5.02
H      20.32      12.26       3.10
H      11.25       9.43      12.53
H      15.22       6.84      11.04
H      13.48      13.38       1.61
H      12.85      13.32       6.54
H      19.63      17.35      12.26
H      15.51      14.90      10.93
C      18.08       3.08       2.44
C      18.02       4.29       3.33
C      17.99       5.56       2.76
C      17.91       6.69       3.57
C      17.86       6.57       4.96
C      17.88       5.30       5.54
C      17.97       4.17       4.73
C      17.80       7.78       5.85
C      24.29       6.86      13.37
C      23.27       7.52      12.49
C      22.19       6.76      12.02
C      21.24       7.36      11.20
C      21.35       8.70      10.83
C      22.43       9.46      11.30
C      23.38       8.86      12.12
C      20.31       9.35       9.96
C      24.25      14.69       2.32
C      23.21      14.07       3.21
C      23.34      14.19       4.60
C      22.39      13.62       5.44
C      21.30      12.92       4.91
C      21.16      12.81       3.52
C      22.12      13.38       2.68
C      20.26      12.29       5.79
C      11.24       6.91      13.51
C      12.30       7.55      12.64
C      12.12       8.87      12.21
C      13.07       9.45      11.37
C      14.18       8.73      10.94
C      14.36       7.41      11.37
C      13.42       6.83      12.21
C      15.22       9.34      10.03
C      11.21      14.66       2.36
C      12.22      13.99       3.26
C      13.34      13.37       2.69
C      14.27      12.75       3.51
C      14.11      12.72       4.90
C      12.99      13.33       5.46
C      12.06      13.96       4.64
C      15.15      12.11       5.79
C      17.42      18.46      13.32
C      17.48      17.25      12.42
C      18.73      16.81      11.98
C      18.81      15.68      11.17
C      17.66      14.98      10.79
C      16.41      15.44      11.22
C      16.33      16.56      12.04
C      17.72      13.75       9.93
Br      17.86       8.41       2.76
Br      18.00       2.44       5.53
Br      19.76       6.32      10.59
Br      24.85       9.90      12.74
Br      22.60      13.78       7.32
Br      21.91      13.21       0.80
Br      12.80      11.25      10.79
Br      13.66       5.03      12.77
Br      15.79      11.91       2.71
Br      10.54      14.80       5.44
Br      20.52      15.08      10.59
Br      14.62      17.16      12.62
O      18.15       0.20       0.29
O      19.24       2.63       2.17
O      16.96       2.66       2.02
O      16.65       8.16       6.23
O      18.93       8.29       6.14
O      25.26       6.28      12.77
O      24.07       6.91      14.62
O      19.35       9.91      10.57
O      20.51       9.29       8.71
O      25.23      13.94       2.01
O      24.07      15.91       2.00
O      19.28      13.03       6.12
O      20.45      11.07       6.10
O      10.28       6.38      12.87
O      11.41       6.99      14.77
O      16.16       9.97      10.60
O      15.06       9.13       8.78
O      10.27      13.91       1.95
O      11.41      15.88       2.08
O      16.09      12.90       6.14
O      14.99      10.90       6.13
O      17.46      19.59      12.74
O      17.36      18.22      14.56
O      17.81      12.65      10.55
O      17.63      13.94       8.67
O      17.73      10.76       7.88
