108

Zn       7.67       8.17       8.54
Zn      10.48       7.91       8.58
H       8.19       5.46       1.99
H       9.27       9.61       1.74
H       7.19       7.80      12.86
H      11.02      10.01      15.10
H       7.43       1.64       5.30
H       8.91       1.11       5.73
H      11.52      13.60       6.72
H      12.60      14.90       6.63
H       7.05       2.49      10.65
H       6.38       1.07      11.18
H       6.23       2.61       7.68
H       9.29      15.02       6.19
H       5.60       1.49       6.63
H       9.73       0.25      10.79
H       8.64       0.94      11.79
H       4.19      10.39       7.33
H       2.73      11.13       6.93
H      15.76      10.01      10.81
H      15.59       8.95      12.06
H      14.03       7.24      11.29
H      14.74       6.11      10.30
H       2.23       5.85      10.89
H      10.26       1.17       7.31
H       3.60       5.86       9.92
H      11.79       6.63      16.68
H      10.52       6.85      15.61
H       6.52      10.30       0.25
H       6.78       9.29       1.58
H      10.48       1.02       9.04
H       7.95      15.25       9.36
H       7.85      15.07       7.24
H      15.44       9.57       7.10
H      15.35       6.18       8.36
H      14.87       7.13       6.95
C       9.15      10.60       8.15
C       9.19       7.58       4.49
C       8.90      15.37       7.15
C       9.00       8.54      11.10
C      11.17      15.10       8.06
C       9.81       0.75       8.22
C       8.67       4.05       8.76
C       9.70      14.66       8.30
C       7.49       1.06       7.26
C       8.44       1.41       8.49
C       7.93       0.83       9.89
C       8.03       8.28      13.37
C       9.02      15.22       9.59
C       8.58       2.84       8.62
C       9.52      13.23       8.18
C       8.82       5.48       8.83
C       9.34      12.03       8.07
C      15.60       9.64       8.19
C      15.50       7.14       7.85
C       2.41       7.32       7.46
C      15.06       8.31       8.79
C       2.55       9.72       8.37
C       9.12       8.71       2.33
C       3.06       8.23       8.63
C       2.55       7.61      10.03
C      15.58       8.02      10.27
C       4.50       8.21       8.54
C       9.29       7.66       5.99
C      13.61       8.27       8.82
C       9.05       8.82      12.58
C      10.12       9.48      13.21
C      10.18       9.51      14.60
C       9.22       8.88      15.40
C       9.38       8.72       3.70
C       8.11       8.30      14.76
C       8.79       6.39       3.84
C       8.53       6.37       2.47
C       8.64       7.55       1.71
C       9.47       8.82      16.87
C       8.27       7.58       0.28
I      11.64      10.49      12.15
I       3.24      11.30      10.06
I       6.59       7.33      15.86
I      12.56      14.06       9.79
I       9.02      13.96      11.35
I      10.05      10.54       4.55
I       2.49       8.04       5.36
I       3.44       5.39       7.19
I       8.55       4.60       4.95
I       3.86       8.27      11.82
I      14.38      11.42       8.61
N       5.65       8.23       8.40
N      14.92       6.90      10.91
N       2.65       6.21      10.03
N      10.79       6.80      16.59
N       6.58       9.34       0.58
N      12.48       8.04       8.79
N       8.12       1.66       6.05
N      11.65      14.61       6.85
N       6.77       1.55      10.37
N       6.17       1.61       7.47
N       9.03       1.00      10.85
N       3.18      10.27       7.25
N      15.28       9.15      11.10
O       7.96      10.17       8.11
O      10.22       9.93       8.29
O       7.87       8.64      10.53
O      10.09       8.19      10.57
O       7.74       6.16       8.94
O      10.00       5.93       8.75
O       8.17       7.76       6.58
O      10.44       7.66       6.52
