102

Zn       6.88       6.92      15.58
Zn       7.54       7.61       1.55
H       8.28       8.34       8.41
H       6.14       6.19       8.72
H       7.46      11.78       2.13
H       6.80      11.10      15.00
H       6.96       2.74      14.99
H       7.64       3.43       2.12
H       3.36       7.64       2.13
H       2.71       6.96      15.00
H      11.06       6.86      15.01
H      11.72       7.55       2.14
C       6.96       4.36      17.11
C       4.97       7.65       0.00
C       7.46      10.17       0.00
C      10.11       7.54       0.02
C       6.69       6.73       4.44
C       6.64       6.68       5.85
C       7.47       7.52       6.63
C       8.32       8.39       5.89
C       8.31       8.39       4.49
C       7.55       7.61       8.09
C       6.87       6.92       9.04
C       6.09       6.15      11.24
C       6.96       7.01      10.50
C       7.80       7.84      11.28
C       7.75       7.78      12.69
C       6.10       6.16      12.64
C       7.47      12.37       1.21
C       7.46      13.77       1.23
C       7.46      14.53       2.45
C       6.80      11.69      15.92
C       6.83      13.09      15.90
C       6.83      13.84      14.68
C       6.97       2.16      15.91
C       6.94       0.76      15.89
C       6.93       0.00      14.68
C       7.62       2.85       1.20
C       7.63       1.44       1.23
C       7.63       0.69       2.45
C       6.80      11.00      17.13
C       6.82      13.82      17.13
C       6.98       2.85      17.12
C       6.96       0.03      17.13
C       2.78       7.63       1.22
C       1.37       7.59       1.24
C       0.62       7.57       2.45
C       2.12       6.95      15.92
C       0.72       6.94      15.90
C      -0.04       6.93      14.68
C      11.64       6.87      15.93
C      13.05       6.88      15.90
C      13.81       6.89      14.68
C      12.30       7.55       1.22
C      13.70       7.58       1.24
C      14.46       7.59       2.45
C       3.46       7.64       0.00
C       0.64       7.59       0.00
C      11.61       7.54       0.01
C      14.43       7.58       0.00
Br       9.45       9.55       3.55
Br       9.49       9.59       6.77
Br       5.58       5.60       3.44
Br       5.43       5.44       6.61
Br       9.02       9.06      10.52
Br       8.87       8.90      13.70
Br       4.91       4.96      10.37
Br       4.95       5.01      13.58
N       7.51       7.57       3.77
N       6.92       6.96      13.36
N       7.61       1.42       3.74
N       7.48      13.80       3.74
N       6.93       0.73      13.39
N       6.83      13.11      13.39
N      13.73       7.59       3.74
N       1.35       7.57       3.74
N      13.08       6.91      13.40
N       0.69       6.92      13.40
O       6.94       4.91      15.97
O       7.61       5.60       1.11
O       5.53       7.67       1.14
O       4.87       6.95      15.99
O       7.50       9.62       1.14
O       6.80       8.93      15.99
O       8.89       6.86      16.02
O       9.55       7.56       1.16
O       8.53       2.20       3.95
O       6.64       1.20       4.48
O       6.54      13.02       3.95
O       8.45      14.00       4.47
O       5.97       1.49      13.18
O       7.89       0.54      12.64
O       7.79      12.36      13.18
O       5.87      13.31      12.64
O      12.97       8.53       3.95
O      13.93       6.62       4.49
O       2.11       6.63       3.95
O       1.14       8.53       4.50
O      12.30       5.97      13.18
O      13.29       7.87      12.65
O       1.46       7.87      13.18
O       0.50       5.95      12.65
