110

Al       0.00      36.19      12.54
Al       4.03      21.71       4.18
H       0.55      20.27       7.02
H       3.48      18.53       4.01
H       3.25      14.50       6.20
H       0.79      16.36       9.42
H       3.24      14.45      10.52
H       0.79      12.59       7.30
H       0.55       8.68       9.69
H       3.48      10.42      12.71
H       0.55      24.90       4.01
H       3.48      23.15       7.02
H       3.25      27.07       9.42
H       0.79      28.93       6.20
H       3.24      30.83       7.30
H       0.79      28.97      10.52
H       0.55      33.01      12.71
H       3.48       5.80       9.69
H       0.55      19.97       1.51
H       3.48      23.45       1.51
H       3.25      38.05      21.99
H       0.79      34.33      21.99
H       3.24      34.33      19.80
H       0.79      38.05      19.79
H       0.55       8.98      15.21
H       3.48      34.45      15.21
C       2.02      36.19      14.63
C       2.02       9.05      11.49
C       2.02      34.38      11.49
C       2.01      19.90       5.22
C       2.01      23.52       5.22
C       2.01      21.71       2.09
C       2.01      18.65       5.95
C       1.26      18.53       7.16
C       1.29      17.33       7.86
C       2.02      16.23       7.34
C       2.74      16.33       6.14
C       2.77      17.54       5.45
C       2.02      15.01       8.05
C       2.02      13.94       8.67
C       2.02      12.72       9.37
C       2.74      12.62      10.58
C       2.78      11.41      11.27
C       2.02      10.30      10.77
C       1.26      10.42       9.56
C       1.29      11.62       8.85
C       2.01      24.78       5.95
C       1.26      25.88       5.45
C       1.29      27.10       6.14
C       2.02      27.20       7.34
C       2.74      26.10       7.86
C       2.77      24.90       7.16
C       2.02      28.42       8.05
C       2.02      29.48       8.67
C       2.02      30.71       9.37
C       2.74      31.80       8.85
C       2.78      33.01       9.56
C       2.02      33.13      10.77
C       1.26      32.02      11.27
C       1.29      30.80      10.58
C       2.01      21.71       0.64
C       1.26      35.21      25.01
C       1.29      35.19      23.61
C       2.02      36.19      22.92
C       2.74      37.19      23.61
C       2.77      37.18      25.01
C       2.02      36.19      21.51
C       2.02      36.19      20.28
C       2.02      36.19      18.87
C       2.74      35.19      18.18
C       2.78      35.20      16.78
C       2.02      36.19      16.07
C       1.26      37.18      16.78
C       1.29      37.19      18.18
O       2.95      35.25      11.25
O       2.95      35.55      13.99
O       2.95       8.82      12.37
O       1.09      34.61      12.37
O       1.09       8.17      11.25
O       1.09      36.83      13.99
O       2.94      22.36       2.73
O       2.94      20.14       4.35
O       2.94      22.65       5.46
O       1.08      21.07       2.73
O       1.08      23.29       4.35
O       1.08      20.78       5.46
O       0.54      19.54       7.69
O       3.49      17.59       4.30
O       3.43      15.27       5.62
O       0.61      17.24       9.04
O       3.43      13.68      11.09
O       0.61      11.71       7.68
O       0.54       9.41       9.03
O       3.49      11.36      12.41
O       0.54      25.84       4.30
O       3.49      23.88       7.69
O       3.43      26.19       9.04
O       0.61      28.16       5.62
O       3.43      31.72       7.68
O       0.61      29.74      11.09
O       0.54      32.06      12.41
O       3.49      34.02       9.03
O       0.54      19.76       0.54
O       3.49      23.67       0.54
O       3.43      38.16      22.95
O       0.61      34.22      22.95
O       3.43      34.22      18.84
O       0.61      38.16      18.84
O       0.54      38.14      16.17
O       3.49      34.24      16.17
