46

Zn       3.36       4.59       6.93
Zn       0.74       4.67       5.82
H       1.91       6.20       1.90
H      -1.71       4.23       7.42
H       5.82       4.16       8.13
H      -1.72       5.10       4.62
H       2.20       3.04      10.85
H      -1.85       5.53      12.35
H       5.96       3.72       0.40
H       0.14       8.97       6.02
H       3.95       0.29       6.77
H       3.07       9.14       6.96
H       1.03       0.12       5.80
H       5.81       5.04       5.34
C       1.99       2.04       6.24
C       5.09       4.29       0.74
C      -0.48       5.13      10.74
C       4.60       4.12       2.02
C       1.30       3.57      11.18
C       2.81       5.68       1.57
C       0.81       3.35      12.49
C       3.30       5.90       0.26
C       1.97       0.56       6.15
C       2.13       8.70       6.62
C       3.04      -0.21       6.44
C       2.11       7.22       6.52
C       1.06       9.47       6.34
C      -2.12       4.55       6.45
C       6.22       4.71       6.30
C       1.24       4.51       8.90
C       2.87       4.74       3.85
C       3.44       4.82       2.46
C       0.67       4.43      10.30
C      -0.97       4.96      12.02
I       5.59       2.68       3.21
I      -1.47       6.57       9.54
N      -1.28       4.79       5.51
N       5.39       4.47       7.25
O       3.04       2.60       6.70
O       1.05       6.66       6.09
O       0.95       2.65       5.83
O       3.17       6.61       6.90
O       2.51       4.52       8.81
O       1.60       4.77       3.94
O       0.42       4.52       7.94
O       3.69       4.70       4.81
