40

Zn       6.67       5.96       8.05
Zn       3.93       5.96       8.05
H       4.30       8.02       0.83
H       6.30       3.89      15.26
H       6.56       7.88      15.27
H       4.04       4.03       0.83
H       2.97       6.11      15.27
H       7.63       5.81       0.82
C       5.30      10.01       8.05
C       5.30       0.68       8.05
C       5.99       7.03      15.65
C       4.61       4.89       0.45
C       4.75       7.10       0.45
C       5.85       4.81      15.65
C       5.30       5.96       4.01
C       5.30       5.96      12.08
C       6.60       5.87       0.44
C       4.00       6.04      15.65
C       5.33       5.95       1.38
C       5.30       1.90       8.05
C       5.27       5.96      14.72
C       5.31       5.96       2.79
C       5.29       5.96      13.30
C       0.67       5.96       8.05
C       9.93       5.96       8.05
C       5.30       8.57       8.05
C       5.30       3.34       8.05
C       5.30       5.96       5.45
C       5.30       5.96      10.64
C       5.30      11.24       8.05
N       1.83       5.96       8.05
N       8.77       5.96       8.05
O       6.44       8.00       8.05
O       4.16       3.91       8.05
O       4.16       8.00       8.05
O       6.44       3.91       8.05
O       6.44       5.96       6.03
O       4.16       5.96      10.07
O       4.16       5.96       6.03
O       6.44       5.96      10.07
