464

Cd       6.34       8.17       4.94
Cd       8.69       8.17       7.92
Cd       1.18       0.78       4.94
Cd      13.86       0.78       7.92
Cd       8.69       9.74      20.78
Cd       6.34       9.74      17.80
Cd      13.86      17.13      20.78
Cd       1.18      17.13      17.80
H      12.15      17.24      23.64
H       2.88      17.24      14.94
H      10.40       9.63      23.64
H       4.63       9.63      14.94
H       2.88       0.68       2.08
H      12.15       0.68      10.78
H       4.63       8.28       2.08
H      10.40       8.28      10.78
H       5.13       2.83       5.14
H       9.90       2.83       7.71
H       2.38       6.13       5.14
H      12.65       6.13       7.71
H       9.90      15.09      20.57
H       5.13      15.09      18.00
H      12.65      11.78      20.57
H       2.38      11.78      18.00
H       7.55      17.09       4.51
H       7.49      17.09       8.35
H      15.01       9.77       4.51
H       0.03       9.77       8.35
H       7.49       0.82      21.21
H       7.55       0.82      17.37
H       0.03       8.14      21.21
H      15.01       8.14      17.37
H       6.19       1.19       4.82
H       8.85       1.19       8.03
H       1.33       7.76       4.82
H      13.71       7.76       8.03
H       8.85      16.72      20.89
H       6.19      16.72      17.68
H      13.71      10.15      20.89
H       1.33      10.15      17.68
H       8.52       5.36       4.63
H       6.52       5.36       8.23
H      14.03       3.60       4.63
H       1.00       3.60       8.23
H       6.52      12.56      21.09
H       8.52      12.56      17.49
H       1.00      14.31      21.09
H      14.03      14.31      17.49
H       8.48      10.95      10.18
H       6.56      10.95       2.67
H      14.08      15.91      10.18
H       0.96      15.91       2.67
H       6.56       6.96      15.53
H       8.48       6.96      23.04
H       0.96       2.00      15.53
H      14.08       2.00      23.04
H       9.21      10.94       6.06
H       5.82      10.94       6.80
H      13.34      15.93       6.06
H       1.70      15.93       6.80
H       5.82       6.97      19.66
H       9.21       6.97      18.92
H       1.70       1.99      19.66
H      13.34       1.99      18.92
H      10.12      15.05       8.18
H       4.91      15.05       4.68
H      12.43      11.82       8.18
H       2.60      11.82       4.68
H       4.91       2.87      17.54
H      10.12       2.87      21.04
H       2.60       6.09      17.54
H      12.43       6.09      21.04
H       9.31      14.55       3.30
H       5.73      14.55       9.56
H      13.25      12.32       3.30
H       1.79      12.32       9.56
H       5.73       3.36      22.42
H       9.31       3.36      16.16
H       1.79       5.59      22.42
H      13.25       5.59      16.16
H       8.95      13.58       9.38
H       6.08      13.58       3.48
H      13.60      13.28       9.38
H       1.43      13.28       3.48
H       6.08       4.33      16.34
H       8.95       4.33      22.24
H       1.43       4.63      16.34
H      13.60       4.63      22.24
H      10.52      16.95       6.68
H       4.51      16.95       6.18
H      12.03       9.92       6.68
H       3.00       9.92       6.18
H       4.51       0.96      19.04
H      10.52       0.96      19.54
H       3.00       7.99      19.04
H      12.03       7.99      19.54
H      13.62      15.08       1.70
H       1.41      15.08      11.16
H       8.93      11.79       1.70
H       6.10      11.79      11.16
H       1.41       2.83      24.02
H      13.62       2.83      14.56
H       6.10       6.12      24.02
H       8.93       6.12      14.56
H      12.16      15.25       3.68
H       2.87      15.25       9.18
H      10.39      11.62       3.68
H       4.64      11.62       9.18
H       2.87       2.66      22.04
H      12.16       2.66      16.54
H       4.64       6.29      22.04
H      10.39       6.29      16.54
H       4.40       5.51       5.38
H      10.63       5.51       7.48
H       3.12       3.44       5.38
H      11.92       3.44       7.48
H      10.63      12.40      20.34
H       4.40      12.40      18.23
H      11.92      14.47      20.34
H       3.12      14.47      18.23
H       9.77       3.62       4.53
H       5.27       3.62       8.33
H      12.79       5.33       4.53
H       2.25       5.33       8.33
H       5.27      14.29      21.18
H       9.77      14.29      17.39
H       2.25      12.58      21.18
H      12.79      12.58      17.39
H       8.79      12.67       4.82
H       6.25      12.67       8.04
H      13.77      14.20       4.82
H       1.27      14.20       8.04
H       6.25       5.24      20.90
H       8.79       5.24      17.68
H       1.27       3.71      20.90
H      13.77       3.71      17.68
H      11.12       1.57       4.21
H       3.92       1.57       8.65
H      11.44       7.39       4.21
H       3.60       7.39       8.65
H       3.92      16.34      21.50
H      11.12      16.34      17.07
H       3.60      10.52      21.50
H      11.44      10.52      17.07
H       1.24      16.43      23.48
H      13.80      16.43      15.10
H       6.28      10.43      23.48
H       8.75      10.43      15.10
H      13.80       1.48       2.24
H       1.24       1.48      10.62
H       8.75       7.48       2.24
H       6.28       7.48      10.62
H      11.49       0.43      25.58
H       3.54       0.43      13.00
H      11.06       8.52      25.58
H       3.97       8.52      13.00
H       3.54      17.48       0.14
H      11.49      17.48      12.72
H       3.97       9.39       0.14
H      11.06       9.39      12.72
H       9.99       0.55       1.81
H       5.05       0.55      11.05
H      12.56       8.40       1.81
H       2.47       8.40      11.05
H       5.05      17.36      23.91
H       9.99      17.36      14.67
H       2.47       9.51      23.91
H      12.56       9.51      14.67
H       0.38      16.09       0.39
H      14.66      16.09      12.47
H       7.14      10.78       0.39
H       7.89      10.78      12.47
H      14.66       1.83      25.33
H       0.38       1.83      13.25
H       7.89       7.13      25.33
H       7.14       7.13      13.25
C      13.16      17.01      23.96
C       1.87      17.01      14.61
C       9.39       9.86      23.96
C       5.65       9.86      14.61
C       1.87       0.90       1.76
C      13.16       0.90      11.10
C       5.65       8.06       1.76
C       9.39       8.06      11.10
C       9.41       0.25       4.29
C       5.62       0.25       8.57
C      13.14       8.71       4.29
C       1.89       8.71       8.57
C       5.62      17.66      21.43
C       9.41      17.66      17.15
C       1.89       9.20      21.43
C      13.14       9.20      17.15
C       5.72       3.74       5.10
C       9.32       3.74       7.76
C       1.80       5.22       5.10
C      13.24       5.22       7.76
C       9.32      14.17      20.62
C       5.72      14.17      17.96
C      13.24      12.69      20.62
C       1.80      12.69      17.96
C       8.03       0.16       4.50
C       7.00       0.16       8.36
C      14.52       8.80       4.50
C       0.51       8.80       8.36
C       7.00      17.75      21.22
C       8.03      17.75      17.36
C       0.51       9.11      21.22
C      14.52       9.11      17.36
C       7.27       1.30       4.69
C       7.77       1.30       8.17
C       0.25       7.65       4.69
C      14.78       7.65       8.17
C       7.77      16.61      21.03
C       7.27      16.61      17.55
C      14.79      10.26      21.03
C       0.25      10.26      17.55
C       7.50       5.04       4.79
C       7.54       5.04       8.07
C       0.02       3.92       4.79
C      15.02       3.92       8.07
C       7.54      12.88      20.93
C       7.50      12.88      17.65
C      15.02      13.99      20.93
C       0.02      13.99      17.65
C       8.70      11.36       9.20
C       6.34      11.36       3.65
C      13.85      15.51       9.20
C       1.18      15.51       3.65
C       6.33       6.55      16.51
C       8.70       6.55      22.06
C       1.18       2.40      16.51
C      13.85       2.40      22.06
C       7.88       2.56       4.67
C       7.16       2.56       8.19
C      14.67       6.40       4.67
C       0.36       6.40       8.19
C       7.16      15.35      21.05
C       7.88      15.35      17.53
C       0.36      11.52      21.05
C      14.67      11.52      17.53
C       9.95      15.87       4.88
C       5.09      15.87       7.97
C      12.61      11.00       4.88
C       2.43      11.00       7.97
C       5.09       2.04      20.83
C       9.95       2.04      17.74
C       2.43       6.91      20.83
C      12.61       6.91      17.74
C       9.06      11.31       7.07
C       5.98      11.31       5.79
C      13.49      15.56       7.07
C       1.54      15.56       5.79
C       5.98       6.60      18.65
C       9.06       6.60      19.93
C       1.54       2.35      18.65
C      13.49       2.35      19.93
C       9.91      14.93       7.12
C       5.13      14.93       5.74
C      12.65      11.94       7.12
C       2.39      11.94       5.74
C       5.13       2.98      18.60
C       9.91       2.98      19.98
C       2.39       5.98      18.60
C      12.65       5.98      19.98
C       9.48      14.65       4.37
C       5.55      14.65       8.49
C      13.07      12.22       4.37
C       1.96      12.22       8.49
C       5.55       3.26      21.35
C       9.48       3.26      17.23
C       1.96       5.69      21.35
C      13.07       5.69      17.23
C       8.95      12.66       8.83
C       6.09      12.66       4.03
C      13.61      14.21       8.83
C       1.43      14.21       4.03
C       6.09       5.26      16.89
C       8.95       5.26      21.69
C       1.43       3.70      16.89
C      13.61       3.70      21.69
C      10.15      16.01       6.26
C       4.89      16.01       6.59
C      12.40      10.86       6.26
C       2.63      10.86       6.59
C       4.89       1.91      19.45
C      10.15       1.91      19.12
C       2.63       7.05      19.45
C      12.40       7.05      19.12
C       9.44      13.72       6.60
C       5.60      13.72       6.26
C      13.12      13.15       6.60
C       1.92      13.15       6.26
C       5.60       4.19      19.12
C       9.44       4.19      19.46
C       1.92       4.76      19.12
C      13.12       4.76      19.46
C      10.98      16.88       2.90
C       4.06      16.88       9.96
C      11.58       9.99       2.90
C       3.46       9.99       9.96
C       4.06       1.03      22.82
C      10.98       1.03      15.76
C       3.46       7.92      22.82
C      11.58       7.92      15.76
C      12.84      15.83       1.72
C       2.20      15.83      11.13
C       9.72      11.03       1.72
C       5.32      11.03      11.13
C       2.20       2.08      23.99
C      12.84       2.08      14.58
C       5.32       6.88      23.99
C       9.72       6.88      14.58
C      12.01      15.92       2.84
C       3.03      15.92      10.02
C      10.54      10.94       2.84
C       4.49      10.94      10.02
C       3.03       1.99      22.88
C      12.01       1.99      15.70
C       4.49       6.97      22.88
C      10.54       6.97      15.70
C      12.66      16.71       0.65
C       2.37      16.71      12.21
C       9.89      10.16       0.65
C       5.15      10.16      12.21
C       2.37       1.20      25.07
C      12.66       1.20      13.51
C       5.15       7.75      25.07
C       9.89       7.75      13.51
C       5.37       5.06       5.20
C       9.67       5.06       7.66
C       2.15       3.90       5.20
C      12.88       3.90       7.66
C       9.67      12.85      20.52
C       5.37      12.85      18.06
C      12.88      14.01      20.52
C       2.15      14.01      18.06
C       9.27       2.65       4.50
C       5.77       2.65       8.36
C      13.28       6.30       4.50
C       1.75       6.30       8.36
C       5.77      15.26      21.22
C       9.27      15.26      17.36
C       1.75      11.61      21.22
C      13.28      11.61      17.36
C       9.21      13.59       5.22
C       5.82      13.59       7.64
C      13.34      13.28       5.22
C       1.70      13.28       7.64
C       5.82       4.32      20.49
C       9.21       4.32      18.08
C       1.70       4.63      20.49
C      13.34       4.63      18.08
C      10.03       1.51       4.31
C       5.00       1.51       8.55
C      12.52       7.45       4.31
C       2.51       7.45       8.55
C       5.00      16.41      21.41
C      10.03      16.41      17.17
C       2.51      10.46      21.41
C      12.52      10.46      17.17
C       0.25      16.54      23.91
C      14.79      16.54      14.67
C       7.27      10.33      23.91
C       7.77      10.33      14.67
C      14.79       1.37       1.81
C       0.25       1.37      11.05
C       7.77       7.58       1.81
C       7.27       7.58      11.05
C      11.63      17.65       0.69
C       3.40      17.65      12.17
C      10.92       9.21       0.69
C       4.12       9.21      12.17
C       3.40       0.26      25.02
C      11.63       0.26      13.55
C       4.12       8.70      25.02
C      10.92       8.70      13.55
C      10.79      17.73       1.79
C       4.25      17.73      11.07
C      11.76       9.14       1.79
C       3.27       9.14      11.07
C       4.25       0.18      23.92
C      10.79       0.18      14.65
C       3.27       8.77      23.92
C      11.76       8.77      14.65
C      14.87      16.35      25.21
C       0.16      16.35      13.37
C       7.68      10.51      25.21
C       7.36      10.51      13.37
C       0.16       1.56       0.51
C      14.87       1.56      12.35
C       7.36       7.40       0.51
C       7.68       7.40      12.35
N       9.17      12.62       7.45
N       5.87      12.62       5.40
N      13.38      14.25       7.45
N       1.65      14.25       5.40
N       5.87       5.29      18.26
N       9.17       5.29      20.31
N       1.65       3.66      18.26
N      13.38       3.66      20.31
N      10.17      16.98       4.03
N       4.87      16.98       8.83
N      12.39       9.89       4.03
N       2.65       9.89       8.83
N       4.87       0.93      21.69
N      10.17       0.93      16.89
N       2.65       8.03      21.69
N      12.39       8.03      16.89
N       6.48       5.85       5.01
N       8.56       5.85       7.85
N       1.04       3.11       5.01
N      13.99       3.11       7.85
N       8.56      12.06      20.71
N       6.48      12.06      17.86
N      13.99      14.81      20.71
N       1.04      14.81      17.86
N      14.21      16.95      23.15
N       0.83      16.95      15.43
N       8.34       9.92      23.15
N       6.69       9.92      15.43
N       0.83       0.96       2.57
N      14.21       0.96      10.29
N       6.69       7.99       2.57
N       8.34       7.99      10.29
N       7.09       3.73       4.84
N       7.95       3.73       8.02
N       0.43       5.23       4.84
N      14.60       5.23       8.02
N       7.95      14.18      20.88
N       7.09      14.18      17.70
N      14.60      12.68      20.88
N       0.43      12.68      17.70
N      13.52      16.66      25.23
N       1.52      16.66      13.34
N       9.03      10.21      25.23
N       6.00      10.21      13.34
N       1.52       1.25       0.48
N      13.52       1.25      12.38
N       6.00       7.70       0.48
N       9.03       7.71      12.38
N       8.77      10.54       8.10
N       6.26      10.54       4.76
N      13.78      16.33       8.10
N       1.25      16.33       4.76
N       6.26       7.38      17.62
N       8.77       7.38      20.96
N       1.25       1.58      17.62
N      13.78       1.58      20.96
Cl       3.75       8.20       4.51
Cl      11.28       8.20       8.35
Cl       3.77       0.76       4.51
Cl      11.27       0.76       8.35
Cl      11.28       9.72      21.21
Cl       3.75       9.72      17.36
Cl      11.27      17.15      21.21
Cl       3.77      17.15      17.36
Cl       6.02       8.33       7.61
Cl       9.01       8.33       5.25
Cl       1.50       0.62       7.61
Cl      13.54       0.62       5.25
Cl       9.01       9.58      18.11
Cl       6.02       9.58      20.47
Cl      13.54      17.29      18.11
Cl       1.50      17.29      20.47
