258

Hf       3.57       2.61       0.82
Hf       3.41      19.73       2.72
Hf       0.36       1.33       0.32
Hf       1.60       1.70       3.58
Hf       1.47      18.35      19.53
Hf       0.19      18.45       2.22
H       0.79       7.46      14.31
H       0.70      11.74      14.69
H       0.01       9.24      18.14
H       3.08      10.90       5.02
H       2.06       8.31       8.31
H       1.92      12.57       8.80
H      17.72      18.70      11.22
H      14.05      18.95      13.44
H      13.97      19.03       9.14
H       5.41       1.18      11.96
H       8.89       0.22       9.61
H       9.14       0.28      13.89
H       9.29      13.28       0.87
H      13.56      13.77       0.98
H      11.02      17.14       0.13
H      14.41       7.84       2.18
H      10.14       7.26       2.05
H      12.75       3.91       2.78
H       4.32       2.48       3.53
H       1.65       0.87      18.45
H      19.17       0.45       2.75
H       2.64      17.35       1.41
H      14.83       4.39       4.60
H      15.64       6.00       0.69
H      17.81       4.78       0.64
H      17.08       3.28       4.60
H       9.26       5.74       0.69
H      10.70       3.21       3.87
H       8.65       1.81       3.67
H       7.19       4.38       0.56
H      12.39      16.75      19.05
H      14.46      15.34       2.28
H      16.55      16.68       2.38
H      14.45      18.15      19.21
H       8.11      15.14       2.29
H       8.26      15.74      18.44
H       6.04      16.91      18.45
H       5.98      16.44       2.36
H      13.28      12.24       2.63
H       9.35      10.24      20.03
H      10.39       8.84       0.46
H      13.63       9.85       3.11
H       4.90      -0.50      13.59
H       7.88       2.01      15.42
H       6.57       2.00      17.55
H       3.65      -0.58      15.73
H       7.98       1.18       8.09
H       4.32       0.66      10.31
H       3.03       0.83       8.21
H       6.69       1.16       5.99
H      18.30      17.45      13.09
H      16.36       0.22      14.71
H      17.61       0.28      16.85
H      -0.37      17.57      15.23
H      15.50      17.44       7.70
H      19.01       0.48       9.54
H       0.32       0.73       7.40
H      16.83      17.64       5.59
H      13.35       0.68       9.71
H      12.04      17.94      13.06
H       9.64      18.48      13.27
H      10.96       1.22       9.91
H       4.55      13.08       5.50
H       0.50      13.68       6.83
H       0.41      15.83       5.56
H       4.50      15.30       4.36
H       3.18       6.90       7.35
H       2.47       9.27       3.82
H       2.64       7.23       2.42
H       3.14       4.85       5.97
H       0.33      10.85      19.27
H      -0.15      13.23      15.70
H      -0.14      15.27      17.08
H       0.82      13.88       0.59
H      18.96       5.90      15.74
H       1.91       7.64      18.41
H       2.06       5.48      19.65
H      19.04       3.77      17.05
H       2.45       8.18      12.79
H      -0.31      11.48      12.64
H       0.24      11.84      10.26
H       3.00       8.53      10.41
C       0.42       8.22      16.30
C       0.65       8.35      14.92
C       0.73       9.63      14.34
C       0.56      10.76      15.15
C       0.29      10.66      16.52
C       0.22       9.37      17.08
C       2.49      11.87       6.84
C       2.77      10.75       6.05
C       2.63       9.45       6.56
C       2.24       9.31       7.90
C       2.00      10.41       8.73
C       2.10      11.70       8.17
C      15.92      18.84      10.04
C      16.63      18.76      11.24
C      15.97      18.79      12.48
C      14.58      18.90      12.49
C      13.84      19.00      11.30
C      14.52      18.95      10.08
C       7.20       0.72      13.06
C       6.46       0.90      11.88
C       7.05       0.75      10.61
C       8.41       0.42      10.56
C       9.18       0.27      11.73
C       8.56       0.42      12.98
C      10.02      15.26       0.42
C      10.18      13.90       0.75
C      11.45      13.35       0.95
C      12.57      14.20       0.85
C      12.44      15.56       0.56
C      11.16      16.08       0.31
C      13.72       5.83       2.55
C      13.53       7.19       2.28
C      12.25       7.72       2.10
C      11.15       6.86       2.16
C      11.31       5.48       2.40
C      12.60       4.98       2.63
C       0.75       3.23      19.19
C       6.49       2.29       2.03
C       2.79       4.63       3.35
C       4.25       0.55      18.03
C       2.30      16.91       4.03
C      17.27      18.72       0.88
C       4.07       0.92       5.65
C       5.01      18.09       0.53
C      -1.06      19.01      17.48
C      18.79       3.10       2.47
C      -1.07      19.41       5.11
C       0.14      15.47      19.72
C      15.50       4.49       3.74
C      15.08       5.25       2.64
C      15.96       5.41       1.55
C      17.17       4.73       1.52
C      17.57       3.95       2.62
C      16.75       3.87       3.75
C       9.12       4.90       1.37
C      10.12       4.60       2.32
C       9.95       3.46       3.13
C       8.80       2.68       3.02
C       7.79       3.02       2.11
C       7.97       4.13       1.28
C      13.14      16.53      19.80
C      13.63      16.43       0.61
C      14.62      16.15       1.57
C      15.78      16.91       1.64
C      15.98      17.99       0.77
C      14.30      17.31      19.89
C       7.80      15.74       1.44
C       8.68      15.87       0.34
C       7.59      15.65      19.30
C       6.36      16.31      19.30
C       6.23      17.25       0.38
C       6.61      16.45       1.47
C      12.65      11.50       2.13
C      11.64      11.92       1.26
C      10.82      10.94       0.68
C      11.02       9.59       0.95
C      12.04       9.16       1.82
C      12.85      10.15       2.41
C       5.26       0.06      14.45
C       6.48       0.76      14.35
C       6.95       1.45      15.48
C       6.21       1.45      16.67
C       5.03       0.72      16.77
C       4.56       0.01      15.64
C       6.90       1.07       8.13
C       6.26       0.89       9.37
C       4.85       0.82       9.37
C       4.11       0.90       8.19
C       4.78       1.00       6.96
C       6.18       1.09       6.95
C      17.93      18.07      13.91
C      16.73      18.79      13.75
C      17.27      -0.37      14.83
C      17.97      -0.32      16.02
C      18.17      18.90      16.17
C      -1.30      18.13      15.11
C      16.34      18.14       7.64
C      16.67      18.91       8.77
C      18.76      -0.14       8.68
C      19.46       0.01       7.49
C      18.13      19.16       6.37
C      17.08      18.24       6.46
C      12.76       0.19      10.47
C      12.38      19.24      11.37
C      11.59      18.66      12.37
C      10.24      18.96      12.49
C      10.62      -0.08      11.61
C      11.40       0.49      10.59
C       3.65      13.69       5.53
C       2.53      13.22       6.23
C       1.38      14.04       6.29
C       1.33      15.24       5.59
C       2.45      15.69       4.88
C       3.63      14.93       4.89
C       3.02       6.98       6.28
C       2.79       8.25       5.70
C       2.67       8.31       4.30
C       2.75       7.16       3.51
C       2.89       5.91       4.11
C       3.03       5.83       5.50
C       0.18      11.80      18.77
C       0.13      11.87      17.37
C      -0.05      13.14      16.78
C      -0.07      14.29      17.55
C       0.00      14.21      18.95
C       0.08      12.95      19.56
C      -0.33       5.81      16.61
C       0.45       6.92      16.99
C       1.29       6.79      18.12
C       1.37       5.60      18.81
C       0.58       4.50      18.44
C      -0.29       4.62      17.34
C       1.94       8.97      12.23
C       1.03       9.80      12.90
C       0.43      10.84      12.16
C       0.74      11.04      10.82
C       1.66      10.21      10.15
C       2.25       9.17      10.89
O      -0.20       2.38      19.27
O       6.31       1.17       2.60
O       3.33       4.49       2.20
O       4.15       1.48      18.89
O       3.70      -0.61      18.12
O       2.14       3.72       3.98
O       5.59       2.93       1.36
O       1.91       3.10      19.72
O       4.05       0.61       0.88
O       1.71       2.21       1.59
O       3.76       1.94       2.96
O       1.67       0.50      19.35
O       3.28      17.71       3.86
O      17.44      19.86       0.33
O       2.93       1.46       5.49
O       3.52      17.28      19.62
O       0.07      18.44      17.65
O      19.56       2.87       3.45
O      -0.97      18.49       4.23
O       0.31      16.60       0.82
O       0.43       0.65       5.01
O       0.84      16.36      19.11
O       4.74       0.29       4.76
O      18.91       2.61       1.28
O      19.28      -0.22      18.36
O       4.88      18.57       1.72
O       1.14      17.03       3.51
O      18.15      18.10       1.58
O       0.36      19.48       0.46
O       2.41      -0.14       3.17
O       0.12       0.49       2.39
O       2.29      18.25       1.44
