104

Zn       5.42      12.62      17.50
Zn       2.64       0.13      17.51
Zn       1.44      12.50       0.01
Zn       4.33      12.77      35.02
H       5.54      12.52      30.71
H       5.39      12.45      28.24
H       1.07       0.42      28.53
H       5.87       0.41      24.00
H       1.63      12.42      24.30
H       1.46      12.46      21.83
H       1.98      12.70      26.43
H       5.03      12.71      26.10
H       5.40       0.23       4.30
H       5.26       0.29       6.78
H       1.01      12.28       6.51
H       5.84      12.31      11.01
H       1.54       0.34      10.73
H       1.39       0.33      13.21
H       1.90      12.54       8.61
H       4.96      12.54       8.91
C       4.53      10.13      17.50
C       3.46       0.15      20.02
C       4.60       2.61      17.50
C       3.46      12.63      15.00
C       2.32       9.99       0.02
C       3.49       0.23      32.51
C       2.35       2.72      35.02
C       3.40      12.52       2.51
C       3.41       0.24      31.02
C       4.58      12.63      30.22
C       4.48      12.59      28.83
C       3.23      12.71      28.18
C       2.06       0.32      28.99
C       2.17       0.35      30.37
C       3.03      12.69      26.74
C       3.99      12.69      25.79
C       4.89       0.30      23.54
C       3.78      12.69      24.35
C       2.53      12.56      23.71
C       2.43      12.58      22.32
C       3.54       0.18      21.51
C       4.77       0.31      22.16
C       3.33      12.50       4.00
C       4.44       0.12       4.80
C       4.35       0.14       6.19
C       3.14      12.54       6.84
C       1.99      12.39       6.04
C       2.10      12.37       4.66
C       2.95      12.56       8.29
C       3.91      12.57       9.23
C       4.86      12.43      11.47
C       3.72      12.58      10.67
C       2.44       0.20      11.32
C       2.35       0.19      12.71
C       3.53      12.59      13.51
C       4.76      12.44      12.85
C       5.69       4.96      17.49
C       3.49       7.78      17.49
C       4.62       4.08      17.50
C       4.56       8.66      17.49
C       3.89       6.42      17.49
C       5.29       6.31      17.49
C       1.13       4.83       0.01
C       3.35       7.64       0.02
C       2.20       3.94       0.00
C       2.28       8.53       0.02
C       2.94       6.29       0.02
C       1.54       6.19       0.02
S       3.09       4.90      17.50
S       6.09       7.84      17.48
S       3.74       4.76       0.00
S       0.74       7.71       0.03
N       0.89       0.52      31.09
N       6.05       0.47      21.44
N       0.81      12.21       3.95
N       6.04      12.28      13.57
O       5.68      10.71      17.50
O       3.40      10.70      17.51
O       2.30       0.16      19.45
O       4.60      12.63      19.41
O       3.45       2.07      17.51
O       5.73       1.99      17.50
O       4.58      12.64      15.60
O       2.28       0.13      15.58
O       1.17      10.59       0.02
O       3.45      10.57       0.01
O       4.64       0.24      33.08
O       2.41      12.73      33.12
O       3.51       2.17      35.01
O       1.08       1.86       0.00
O       2.28      12.52       1.91
O       4.55      12.54       1.93
O       0.55       1.66      31.39
O       0.24      12.03      31.24
O       6.38       1.61      21.11
O       6.77      11.98      21.30
O       0.47      11.06       3.65
O       0.11       0.70       3.80
O       6.39      11.14      13.88
O       6.69       0.78      13.70
F       6.98       4.59      17.49
F       2.19       8.14      17.50
F       7.23       4.47       0.01
F       4.64       7.99       0.02
