102

Mg      -1.04      13.49       6.58
Mg       3.51      13.48       8.40
Mg       1.23      11.91       7.48
Mg       3.34      -0.53      15.88
Mg      -1.21      -0.52      14.06
Mg       1.07       1.05      14.98
H       1.55      16.96       9.86
H      -0.72       8.90       9.77
H       3.83      13.01       2.83
H       2.44      -5.69       9.92
H      -2.12       7.22      12.56
H       0.19      -1.52      22.44
H       1.40      19.19      10.63
H      -0.87       7.13      11.33
H       3.67      12.57       0.51
H      -0.14      18.65      12.54
H       4.42       5.74       9.90
H       2.11      14.48       0.02
H       0.90      -6.22      11.83
H       3.17       5.83      11.13
H      -1.37       0.39      21.95
H       0.75      -4.00      12.60
H       3.02       4.06      12.69
H      -1.53      -0.05      19.63
H      -1.32      -4.00      13.98
H       0.95       2.86      12.00
H       3.23       1.15      18.94
H       4.57      -5.98      12.82
H       0.01       4.86      10.87
H       2.29       1.13      21.23
H      -2.27      18.94       9.64
H       2.29       8.10      11.59
H       0.01      11.83       1.23
H       3.62      16.96       8.48
H       1.35      10.10      10.46
H      -0.93      11.81       3.52
C      -1.37      15.85       8.47
C       3.18      10.66       9.49
C       0.90      12.37       4.49
C      -0.00      15.86       8.89
C      -2.28      10.29       9.30
C       2.27      12.72       4.27
C       0.50      16.99       9.56
C      -1.77       9.14       9.94
C       2.78      12.74       2.95
C      -0.27      18.11       9.83
C       4.28       8.35      10.78
C       2.01      12.41       1.85
C       0.31      19.32      10.53
C      -1.96       7.15      11.48
C       2.58      12.42       0.45
C       1.99      -6.36      11.93
C       4.26       5.81      10.98
C      -0.28       0.54      22.01
C       2.57      -5.15      12.63
C      -1.98       4.61      11.68
C       0.29       0.55      20.61
C       1.80      -4.03      12.90
C       4.07       3.82      12.52
C      -0.48       0.22      19.51
C       2.30      -2.90      13.57
C       4.58       2.67      13.16
C       0.03       0.24      18.19
C       3.67      -2.89      13.99
C      -0.88       2.30      12.96
C       1.40       0.59      17.97
C       4.46      -4.02      13.67
C      -0.09       3.14      12.14
C       2.18       0.89      19.11
C       3.92      -5.12      13.02
C      -0.63       4.25      11.51
C       1.65       0.87      20.38
C       1.38      -1.78      13.82
C       3.65       1.90      14.01
C      -0.90      -0.11      17.10
C      -1.62      18.08       9.44
C       2.93       8.71      10.95
C       0.65      12.09       2.07
C      -2.16      16.98       8.78
C       2.39       9.82      10.32
C       0.12      12.07       3.35
C       0.92      14.74       8.64
C      -1.35      11.06       8.45
C       3.20      13.07       5.36
O       2.10      14.74       9.12
O      -0.17      10.65       8.21
O       4.38      13.48       5.13
O       0.51      13.75       7.91
O      -1.77      12.19       7.96
O       2.78      12.93       6.58
O      -1.95      14.83       7.80
O       2.61      11.74       8.95
O       0.33      12.30       5.70
O       0.20      -1.78      13.34
O       2.47       2.31      14.25
O      -2.08      -0.52      17.33
O       1.79      -0.79      14.55
O       4.07       0.77      14.50
O      -0.48       0.03      15.88
O       4.25      -1.87      14.65
O      -0.31       1.22      13.51
O       1.97       0.66      16.76
