50

Al       4.04       3.48       8.70
Al       0.68       3.48       8.70
H      -1.02       2.49       7.21
H       2.37       4.50      10.18
H      -3.08       3.14      12.75
H      -3.08       3.08      15.23
H       1.20       2.42      15.18
H       0.19       4.59       2.20
H       4.45       3.85       4.66
H       4.47       3.93       2.18
H       1.24       2.54      11.65
H       0.13       4.44       5.74
H       1.50       6.42       8.51
H       4.28      -0.48       8.10
H      -0.15       0.55       8.89
H      -2.93       7.45       9.31
C       2.38       1.08       8.53
C       2.34       3.97       6.30
C      -1.03       5.89       8.87
C      -0.98       3.00      11.09
C      -0.96       2.85      12.55
C      -2.15       2.99      13.29
C      -2.15       2.95      14.67
C      -0.93       2.77      15.37
C       0.26       2.58      14.66
C       0.26       2.62      13.26
C      -0.93       2.77      16.79
C       2.33       4.24       0.61
C       2.32       4.24       2.02
C       1.13       4.42       2.73
C       1.11       4.37       4.13
C       2.32       4.14       4.84
C       3.52       4.00       4.11
C       3.54       4.05       2.73
C       2.32      -0.39       8.62
C      -0.97       7.36       8.78
N       1.49       7.43       8.60
N      -0.14      -0.46       8.81
O       3.53       1.63       8.59
O       1.20       4.05       6.92
O       0.08       5.24       9.03
O      -2.09       3.22      10.51
O      -2.18       5.34       8.82
O       0.15       2.92      10.47
O       1.28       1.73       8.37
O       3.45       3.75       6.89
O      -1.00       3.01       8.02
O       2.35       3.96       9.37
O       1.44       2.44      12.62
O      -0.07       4.55       4.76
