172

Ag       1.08       6.32       7.35
Ag       2.64       9.56      22.65
Ag       5.59       4.27      23.23
Ag       4.03       1.03       7.94
H       4.99       2.37       4.94
H       4.62       2.92      20.23
H       1.67       8.22      25.64
H       2.04       7.67      10.35
H       3.22       2.50       4.94
H       0.11       2.80      20.23
H       3.45       8.09      25.65
H       6.55       7.79      10.35
H       5.54       5.97       4.70
H       4.46       9.92      19.99
H       1.12       4.62      25.89
H       2.21       0.68      10.59
H       6.33       4.37       4.83
H       3.29       0.93      20.12
H       0.34       6.22      25.75
H       3.38       9.67      10.46
H       2.17       4.67       4.76
H       1.17       0.62      20.05
H       4.50       5.92      25.82
H       5.50       9.97      10.53
H       3.18       6.15       4.71
H       0.54       9.74      20.00
H       3.49       4.44      25.88
H       6.13       0.85      10.58
H       6.24       3.14       6.86
H       3.37       2.16      22.15
H       0.42       7.46      23.73
H       3.29       8.43       8.44
H       5.39       3.80       8.29
H       4.23       1.49      23.58
H       1.28       6.79      22.30
H       2.44       9.10       7.00
H       4.29       5.90       8.16
H       5.71       9.99      23.46
H       2.37       4.69      22.42
H       0.96       0.60       7.13
H       4.36       6.87       6.64
H       5.65       9.01      21.93
H       2.31       3.72      23.95
H       1.02       1.58       8.65
H       2.96       3.94       8.27
H       0.37       1.35      23.56
H       3.70       6.65      22.32
H       6.30       9.24       7.03
H       2.07       3.37       6.82
H       1.26       1.93      22.12
H       4.59       7.22      23.76
H       5.41       8.67       8.47
H       0.65       5.85      12.40
H       3.07      10.04      27.69
H       6.02       4.74      18.19
H       3.60       0.55       2.90
H       0.45       4.13      12.85
H       2.89       1.16      28.14
H       6.22       6.46      17.74
H       3.78       9.43       2.45
H       2.94       3.77      12.49
H       0.40       1.52      27.78
H       3.73       6.82      18.10
H       6.27       9.07       2.80
H       3.09       5.45      11.93
H       0.63      10.44      27.22
H       3.58       5.14      18.65
H       6.04       0.15       3.36
H       4.42       6.41      13.43
H       5.58       9.47      28.72
H       2.25       4.18      17.15
H       1.09       1.12       1.86
H       4.82       4.79      14.08
H       4.79       0.50      29.37
H       1.84       5.80      16.51
H       1.87      10.09       1.22
H       2.92       3.39      14.92
H       0.42       1.91      30.22
H       3.75       7.20      15.66
H       6.25       8.68       0.37
H       1.27       4.08      14.86
H       2.06       1.21      30.15
H       5.40       6.51      15.72
H       4.61       9.38       0.43
H       6.33       8.01       4.97
H       3.68       7.88      20.26
H       0.34       2.58      25.62
H       2.99       2.72      10.32
H       1.56       8.46       4.96
H       2.16       7.42      20.25
H       5.11       2.13      25.63
H       4.51       3.17      10.33
C       4.15       2.99       5.26
C       5.47       2.31      20.56
C       2.52       7.60      25.32
C       1.20       8.28      10.03
C       5.46       4.97       5.14
C       4.16       0.32      20.43
C       1.20       5.62      25.45
C       2.51      10.27      10.15
C       3.10       5.13       5.12
C       0.24       0.16      20.41
C       3.57       5.46      25.47
C       6.43      10.43      10.18
C       5.38       3.73       7.19
C       4.23       1.56      22.49
C       1.28       6.86      23.39
C       2.43       9.03       8.10
C       4.30       5.87       7.06
C       5.71      10.02      22.36
C       2.37       4.73      23.52
C       0.96       0.57       8.23
C       2.99       3.87       7.17
C       0.35       1.43      22.47
C       3.68       6.72      23.41
C       6.32       9.16       8.12
C       1.05       4.84      12.26
C       2.28       0.46      27.55
C       5.61       5.75      18.33
C       4.39      10.13       3.03
C       2.53       4.80      12.63
C       0.80       0.50      27.92
C       4.14       5.79      17.96
C       5.87      10.10       2.67
C       4.14       5.67      14.19
C       5.86      10.22      29.49
C       2.52       4.92      16.39
C       0.81       0.37       1.10
C       2.33       4.33      15.00
C       1.00       0.96      30.30
C       4.33       6.26      15.58
C       5.67       9.63       0.29
S       0.77       4.40      10.55
S       2.57       0.90      25.84
S       5.90       6.19      20.04
S       4.10       9.69       4.75
N       3.04       5.23       6.60
N       0.29       0.07      21.90
N       3.63       5.36      23.98
N       6.38      10.52       8.69
N       4.24       4.32       4.68
N       5.38       0.97      19.97
N       2.43       6.27      25.91
N       1.29       9.62      10.62
N       4.15       3.05       6.75
N       5.47       2.25      22.05
N       2.52       7.55      23.83
N       1.20       8.34       8.54
N       5.49       5.09       6.63
N       4.13       0.20      21.92
N       1.18       5.50      23.96
N       2.54      10.39       8.66
N       2.75       5.29      13.98
N       0.58       0.00      29.27
N       3.92       5.30      16.60
N       6.08      10.59       1.31
O       1.61       5.30       9.74
O       2.11      10.59      25.03
O       5.06       5.29      20.84
O       4.56       0.00       5.55
O       1.17       2.98      10.41
O       2.16       2.32      25.70
O       5.50       7.61      20.18
O       4.50       8.27       4.89
O       5.60       4.60      10.33
O       4.01       0.69      25.62
O       1.06       5.99      20.25
O       2.65       9.90       4.96
O       0.97       7.68       5.07
O       2.75       8.21      20.37
O       5.70       2.91      25.51
O       3.92       2.38      10.22
