98

Zn       9.71       7.63       8.54
Zn       6.93       7.78       8.71
H       6.21       9.18       4.71
H      14.32       8.86       6.71
H       6.45       8.61      12.93
H      10.33       8.12       4.24
H       5.93       9.33       0.17
H      11.02       9.33      17.00
H      10.20       8.67       1.81
H       6.69       9.36      15.30
H      10.96       8.79      15.01
H       6.05       9.75       2.30
H      10.63      14.38       9.33
H      10.69       8.06      12.66
H       6.61       0.97       7.00
H       6.39      12.04       8.35
H       9.54       3.46      10.11
H       6.47      14.52       8.24
H       9.34       1.00      10.33
H      10.03      10.74      11.26
H      12.16       9.76      12.04
H      14.28      10.23      10.83
H      14.25      11.72       8.82
H      12.11      12.72       8.05
H       2.29       9.74       7.87
H       4.68       2.61       6.96
H       3.43       3.71       5.12
H       4.59       5.33       3.62
H       7.00       5.83       3.97
H       8.25       4.73       5.80
H      14.35       6.49      10.32
H       4.80       9.68       8.00
H      11.84       6.55      10.27
H       4.82       5.72       9.16
H      11.81       8.81       6.81
H       2.31       5.60       9.12
C       8.32      10.32       8.80
C       8.89       2.90       9.44
C       7.37      13.96       8.49
C       8.79       1.52       9.55
C       8.57      14.64       8.76
C       7.94       0.80       8.68
C       2.81       8.82       8.16
C      13.83       7.00       9.51
C       4.19       8.80       8.23
C      12.45       7.03       9.50
C       4.20       6.58       8.91
C       8.24       5.11       8.50
C      12.43       8.31       7.56
C       2.82       6.53       8.88
C      13.82       8.34       7.52
C       8.32       8.13       6.04
C       8.43       7.83      11.23
C       2.09       7.67       8.51
C      14.55       7.66       8.51
C       8.27       8.57       4.61
C       8.56       8.28      12.66
C       7.08       9.07       4.06
C       9.69      13.87       9.11
C       9.83       8.35      13.26
C       7.00       9.38       2.71
C       9.97       8.77      14.57
C       8.11       9.19       1.86
C       8.84       9.13      15.34
C       9.32       8.79       2.45
C       7.58       9.08      14.72
C       9.40       8.48       3.80
C       7.43       8.66      13.40
C       8.03       9.25       0.41
C       7.22       1.52       7.72
C       8.93       9.41      16.77
C      10.92      11.79       9.60
C      10.95      10.95      10.72
C      12.15      10.40      11.16
C      13.35      10.66      10.48
C      13.32      11.50       9.36
C      12.12      12.06       8.93
C       6.55       3.59       6.51
C       5.19       3.31       6.30
C       4.49       3.93       5.26
C       9.67      12.47       9.18
C       5.14       4.84       4.43
C       6.49       5.12       4.62
C       7.19       4.50       5.66
C       7.30       2.91       7.60
C       8.45      11.81       8.88
C       8.15       3.61       8.49
C       7.32      12.57       8.56
N       4.88       7.71       8.61
N      11.76       7.67       8.53
O       9.38       9.67       8.52
O       7.14       5.75       8.51
O       7.16       9.83       8.99
O       9.41       5.60       8.55
O       9.44       7.72       6.49
O       7.26       7.66      10.76
O       7.23       8.18       6.70
O       9.53       7.68      10.59
