256

Zn       8.55       0.97       7.73
Zn       4.43      10.84       2.89
Zn       6.42      18.77      13.52
Zn      10.54       8.90      18.36
Zn       8.57      18.75       5.65
Zn       4.41       8.88       4.97
Zn       6.40       1.00      15.60
Zn      10.56      10.87      16.28
H       9.01      18.14      11.01
H       7.95       8.26      20.87
H       5.96       1.61      10.24
H       7.02      11.48       0.39
H       9.09      15.02       8.05
H       3.88       5.15       2.57
H       5.88       4.72      13.20
H      11.09      14.59      18.68
H       9.39      16.49      12.79
H       7.57       6.62      19.09
H       5.58       3.26       8.46
H       7.40      13.13       2.17
H       1.90      18.10       5.20
H      11.08       8.23       5.42
H      13.07       1.64      16.05
H       3.89      11.51      15.83
H       4.41      18.11       5.38
H       8.56       8.24       5.25
H      10.56       1.63      15.87
H       6.41      11.51      16.01
H      10.74       6.00      18.68
H       6.23      15.87      13.20
H       4.23      13.74       2.58
H       8.74       3.87       8.05
H       8.88       1.71       2.38
H       4.09      11.58       8.25
H       6.09      18.04      18.87
H      10.88       8.16      13.01
H       7.70       7.65       1.95
H       5.28      17.53       8.68
H       7.27      12.09      19.30
H       9.69       2.22      12.58
H       7.41       4.52       5.24
H       5.57      14.40       5.39
H       7.56      15.22      16.01
H       9.40       5.35      15.87
H      11.14       4.33      20.48
H       5.82      14.20      11.40
H       3.83      15.41       0.77
H       9.15       5.54       9.86
H       9.51      13.33       9.84
H       3.46       3.46       0.79
H       5.46       6.41      11.41
H      11.51      16.28      20.47
H       1.69       1.54       8.06
H      11.29      11.42       2.57
H      13.28      18.20      13.19
H       3.68       8.33      18.69
H       6.97       6.18       3.42
H       6.00      16.05       7.21
H       8.00      13.57      17.84
H       8.96       3.69      14.04
H       4.19       1.50       8.30
H       8.78      11.37       2.33
H      10.78      18.24      12.95
H       6.19       8.37      18.93
H      11.07      12.51      11.44
H       5.90       2.64      20.44
H       3.90       7.23       9.82
H       9.07      17.10       0.81
H       7.16       9.17       0.05
H       5.81      19.04      10.58
H       7.81      10.57      21.20
H       9.16       0.70      10.68
H       8.56       3.37       0.55
H       4.41      13.24      10.07
H       6.41      16.38      20.70
H      10.56       6.50      11.18
H      11.45      11.00      13.40
H       5.51       1.13      18.48
H       3.52       8.74       7.85
H       9.46      18.61       2.77
H       9.01      13.28      15.83
H       7.96       3.41      16.05
H       5.96       6.46       5.43
H       7.01      16.34       5.20
H       8.48      14.87      13.97
H       8.48       5.00      17.91
H       6.49       4.87       7.28
H       6.49      14.74       3.35
C       9.04      16.68       9.42
C       3.94       6.81       1.21
C       5.93       3.06      11.83
C      11.03      12.93      20.05
C       9.50      14.79      11.45
C       7.47       4.92      20.43
C       5.47       4.95       9.81
C       7.50      14.82       0.82
C       9.73      13.83      12.54
C       7.23       3.96      19.34
C       5.23       5.91       8.72
C       7.74      15.78       1.91
C       8.16       3.01       3.92
C       4.82      12.88       6.71
C       6.81      16.73      17.34
C      10.15       6.86      14.54
C       1.66      19.70       6.61
C      11.32       9.83       4.02
C      13.31       0.04      14.64
C       3.65       9.91      17.24
C       9.13      17.08      10.76
C       7.84       7.21      21.12
C       5.84       2.66      10.50
C       7.13      12.53       0.13
C       5.95      19.70       6.91
C       7.03       9.83       3.71
C       9.02       0.04      14.34
C       7.94       9.91      17.54
C       8.80      17.71       8.35
C       4.18       7.84       2.27
C       6.17       2.03      12.90
C      10.79      11.90      18.98
C       9.18      15.32       9.10
C       3.80       5.45       1.53
C       5.79       4.42      12.16
C      11.17      14.29      19.72
C       7.73       4.89       1.85
C       5.24      14.76       8.77
C       7.24      14.85      19.40
C       9.73       4.98      12.48
C       7.47       5.84       0.76
C       5.50      15.71       9.86
C       7.50      13.90      20.49
C       9.47       4.03      11.39
C       9.34      16.15      11.76
C       7.63       6.28      20.12
C       5.63       3.59       9.49
C       7.34      13.46       1.13
C       8.32       1.98       4.99
C       4.65      11.85       5.63
C       6.64      17.76      16.26
C      10.32       7.89      15.62
C       2.42      18.79       5.86
C      10.56       8.92       4.76
C      12.55       0.95      15.39
C       4.41      10.82      16.49
C       3.80      18.79       5.97
C       9.17       8.92       4.65
C      11.17       0.95      15.28
C       5.80      10.82      16.60
C       4.45      19.68       6.85
C       8.53       9.81       3.78
C      10.52       0.06      14.41
C       6.44       9.93      17.47
C      11.14      19.72       6.50
C       1.83       9.85       4.13
C       3.83       0.02      14.75
C      13.14       9.89      17.13
C      10.94       6.31      19.70
C       6.03      16.18      12.18
C       4.03      13.43       1.55
C       8.94       3.56       9.08
C       8.48       2.69       2.59
C       4.50      12.57       8.04
C       6.49      17.05      18.66
C      10.47       7.18      13.22
C       7.47       7.23       0.97
C       5.51      17.10       9.66
C       7.50      12.51      20.28
C       9.46       2.64      11.60
C       7.65       4.29       4.20
C       5.33      14.16       6.42
C       7.32      15.46      17.05
C       9.64       5.58      14.83
C      11.19       5.40      20.71
C       5.78      15.27      11.17
C       3.78      14.35       0.54
C       9.19       4.47      10.08
C       9.42      14.39      10.10
C       3.56       4.52       0.53
C       5.55       5.35      11.15
C      11.41      15.23      20.73
C       2.30       0.85       7.49
C      10.68      10.72       3.14
C      12.67      18.89      13.77
C       4.29       9.02      18.11
C       7.42       5.21       3.19
C       5.55      15.08       7.44
C       7.55      14.53      18.07
C       9.42       4.66      13.81
C       3.68       0.82       7.61
C       9.29      10.70       3.01
C      11.29      18.92      13.64
C       5.68       9.05      18.24
C      10.57      12.71      12.38
C       6.39       2.84      19.49
C       4.40       7.03       8.87
C       8.58      16.90       1.76
C      11.18       8.09      21.17
C       5.79      17.96      10.71
C       3.79      11.65       0.08
C       9.18       1.78      10.54
C       8.28       3.62       1.58
C       4.70      13.49       9.05
C       6.69      16.12      19.68
C      10.27       6.25      12.20
C      10.80      11.88      13.47
C       6.16       2.00      18.41
C       4.17       7.87       7.78
C       8.81      17.74       2.84
C       9.43      13.15      14.83
C       7.53       3.28      17.05
C       5.54       6.59       6.42
C       7.44      16.46       4.21
C       9.15      14.03      13.80
C       7.81       4.16      18.08
C       5.82       5.71       7.45
C       7.16      15.58       3.17
N      10.92       7.64      19.92
N       6.04      17.51      11.95
N       4.05      12.10       1.33
N       8.93       2.23       9.30
N      10.25      12.09      14.68
N       6.72       2.22      17.20
N       4.72       7.65       6.58
N       8.25      17.52       4.05
O       8.17       2.35       6.21
O       4.81      12.22       4.42
O       6.80      17.39      15.05
O      10.16       7.52      16.83
O       6.50       0.67       7.82
O       6.48      10.54       2.81
O       8.47      19.07      13.44
O       8.49       9.20      18.44
O       8.56      17.30       7.17
O       4.41       7.43       3.45
O       6.41       2.44      14.08
O      10.56      12.31      17.80
O      10.53       0.90       7.13
O       2.45      10.77       3.50
O       4.44      18.84      14.12
O      12.52       8.97      17.76
O      10.60      18.81       5.79
O       2.38       8.94       4.83
O       4.37       0.93      15.46
O      12.59      10.80      16.42
O       6.56      19.01       6.04
O       6.41       9.14       4.59
O       8.41       0.73      15.21
O       8.56      10.61      16.67
O       8.84      18.93       8.73
O       4.13       9.06       1.90
O       6.13       0.81      12.52
O      10.84      10.69      19.36
O       8.59       0.80       4.60
O       4.38      10.67       6.02
O       6.37      18.94      16.65
O      10.59       9.07      15.23
