216

Zn       7.57       8.96      15.56
Zn      27.05      10.77      18.23
Zn       9.02      11.83      15.70
Zn      25.52      11.71      15.61
Zn      18.39       7.28       8.84
Zn      16.87       4.42       8.69
Zn      18.62       5.46       6.21
Zn      20.08       4.54       8.89
Zn      16.19      16.29      22.42
Zn      17.71      15.36      25.10
Zn      15.96      18.05      25.10
Zn      14.50      15.20      24.93
Zn      17.70       4.96      32.00
Zn      14.49       4.84      31.82
Zn      24.82      19.82      31.82
Zn      18.40      17.64       1.96
H      23.11       5.79      11.43
H      20.82       9.45      11.42
H       5.09       6.85      12.99
H      11.47      13.34      22.78
H      13.76      14.77      19.41
H       9.82      12.31      21.19
H      13.32       5.59      11.09
H      19.26      14.82      19.56
H      16.23      19.70      19.57
H      29.24      18.54      11.32
H      12.20       1.49       4.97
H      14.48       2.91       1.59
H      13.87       2.53       6.51
H      18.36      14.23       4.83
H       4.68       2.66       1.31
H      22.37      17.64      29.25
H      11.45       3.62      29.25
H      20.70      16.63      27.68
H      13.98       8.52      29.35
H      21.25       3.78      29.58
H      23.11      10.99      13.62
H      11.47      13.34      17.13
H      16.87       4.40       3.72
H      17.71      19.93      27.05
C       7.46       7.81      18.28
C       9.87      12.34      18.53
C      10.16       9.51      14.27
C      27.10      13.84      14.28
C      24.71       9.31      14.01
C      24.43      12.15      18.28
C      15.77       6.74      10.13
C      16.07       3.90       5.88
C      18.48       8.42       6.13
C      21.19       4.07       6.17
C      20.88       6.94      10.41
C      18.48       2.40      10.14
C      18.80      14.92      22.39
C      18.51      17.75      26.66
C      16.10      19.24      22.40
C      13.39      17.55      26.39
C      13.71      14.73      22.12
C      16.11      13.22      26.39
C      16.09       6.97      30.54
C      22.33      20.16      30.27
C      27.45      20.33      30.54
C      18.48      14.69       2.00
C      12.25       1.51       2.25
C       7.13       1.33       1.99
C      23.73       8.73      13.08
C      21.87       7.56      11.34
C      22.60       9.47      12.63
C      22.98       6.82      11.77
C      21.68       8.87      11.76
C      23.89       7.40      12.64
C      10.86      12.96      19.43
C      12.71      14.12      21.18
C      11.99      13.66      18.92
C      11.60      13.42      21.70
C      12.90      14.23      19.81
C      10.69      12.86      20.82
C      12.44       9.63      13.05
C      13.52       6.63      11.35
C      11.27       8.99      13.47
C      14.67       7.29      10.95
C      12.70       7.48      12.12
C      13.25       8.77      12.28
C      23.20      12.68      20.50
C      20.02      14.38      20.21
C      23.34      12.68      19.11
C      19.91      14.37      21.59
C      21.22      13.76      19.81
C      21.99      13.30      20.89
C       7.39       6.48      20.49
C       7.52       2.88      20.22
C       7.45       6.60      19.11
C       7.46       2.78      21.60
C       7.50       4.23      19.81
C       7.41       5.13      20.90
C      25.99      15.74      12.92
C      28.22      18.20      11.47
C      27.08      15.06      13.46
C      27.12      18.86      10.95
C      27.81      17.06      12.19
C      26.41      16.88      12.20
C      15.11       3.30       4.93
C      13.24       2.14       3.19
C      15.28       3.41       3.53
C      13.06       2.03       4.58
C      14.34       2.82       2.67
C      13.99       2.60       5.43
C      18.54       9.75       3.91
C      18.42      13.35       4.18
C      18.48       9.63       5.30
C      18.48      13.45       2.80
C      18.44      12.00       4.59
C      18.52      11.10       3.51
C       3.80       2.89       5.80
C       4.88       2.50       2.37
C       2.63       3.53       5.37
C       6.03       1.87       2.81
C       4.06       2.87       3.45
C       4.61       2.52       4.70
C      19.47      18.39      27.59
C      21.33      19.54      29.34
C      19.30      19.72      28.03
C      21.51      18.21      28.90
C      20.24      20.28      28.91
C      20.59      17.65      28.03
C      17.22      11.32      27.75
C      15.00       8.86      29.21
C      16.14      12.01      27.21
C      16.10       8.20      29.73
C      15.41      10.01      28.48
C      16.81      10.18      28.47
C      30.78      17.43      27.63
C      29.69      20.43      29.32
C      31.95      18.06      27.21
C      28.55      19.78      29.73
C      30.52      19.58      28.55
C      29.97      18.29      28.40
S      11.19       7.34      12.92
S      14.77       8.94      11.49
S      21.99      13.44      18.30
S      21.24      13.62      22.41
S       7.54       5.06      18.30
S       7.37       4.32      22.41
S      28.60      15.81      13.08
S      25.60      18.12      11.32
S      18.39      11.17       6.10
S      18.57      11.92       1.99
S       2.55       3.67       3.64
S       6.13       1.73       4.55
S      14.61      11.25      27.59
S      17.62       8.95      29.35
S      32.03      19.72      27.75
S      28.45      18.12      29.19
Cl      12.89      11.25      13.38
Cl      24.30      12.04      21.63
Cl       7.29       7.75      21.63
Cl      24.35      15.32      13.07
Cl      18.63       8.48       2.78
Cl       4.26       2.57       7.41
Cl      18.87      11.74      27.60
Cl      30.33      15.81      27.30
O       7.46      10.80      16.27
O       7.54       7.63      17.01
O       8.88      11.72      19.05
O      10.24      10.73      14.65
O       7.40       8.93      18.88
O       9.21       8.69      14.52
O      10.06      12.47      17.25
O       8.59      13.43      14.64
O      24.50      10.53      14.39
O      25.98      13.30      14.56
O      25.70       8.60      14.38
O      25.41      11.61      18.88
O      24.28      12.29      17.01
O      18.48       5.43       8.16
O      16.73       7.54       9.86
O      15.87       3.78       7.13
O      18.56       7.29       5.53
O      15.66       5.52       9.77
O      18.41       8.61       7.39
O      17.09       4.52       5.36
O      20.24       4.61       5.50
O      21.09       5.73      10.06
O      21.27       3.97       7.43
O      19.89       7.66      10.03
O      17.34       2.84       9.76
O      19.62       2.92       9.89
O      16.09      16.23      24.39
O      17.85      15.48      21.75
O      18.72      16.56      26.29
O      16.02      19.39      23.67
O      18.91      14.79      23.66
O      16.18      18.14      21.76
O      17.49      18.47      26.29
O      14.34      18.38      26.15
O      13.49      14.58      23.37
O      13.32      16.34      26.01
O      14.69      15.35      21.59
O      17.24      13.76      26.12
O      14.96      13.63      26.02
O      16.10       3.96      32.54
O      17.23       6.53      30.90
O      22.11      21.36      30.63
O      26.48      19.53      30.80
O      14.94       6.47      30.81
O      18.91       3.85      30.90
O      23.31      19.43      30.63
O      18.55      14.53       0.73
O      11.27       0.90       2.79
O      18.42      15.79       2.64
O      12.47       1.64       1.00
O       7.02       1.47       0.73
O       8.09       0.78       2.63
O      22.36      10.75      13.01
O      12.22      13.81      17.60
O      16.32       4.06       2.96
O      18.26      20.50      27.66
