74

Zn       0.38       9.12       5.42
Zn       5.79       6.65       3.72
Zn      11.31       5.83       4.91
Zn       5.90       8.30       6.61
Zn       8.60       8.17       4.15
Zn       3.08       6.78       6.18
H      10.57       2.44       4.59
H       6.64       9.79       9.67
H       1.11      12.51       5.74
H       5.05       5.16       0.66
H       5.63       3.09       3.71
H       0.54      10.39       8.75
H       6.06      11.86       6.62
H      11.15       4.56       1.58
H       7.00      11.86       3.70
H      10.21       7.30       0.55
H       4.69       3.10       6.63
H       1.48       7.65       9.78
H      10.89       8.02       3.16
H       6.32       9.16       3.94
H       0.80       6.93       7.17
H       5.37       5.79       6.39
C       9.51      11.13       4.20
C       7.70       7.09       1.40
C       2.18       3.82       6.13
C       3.99       7.86       8.93
C       8.99      12.55       4.15
C       8.22       6.63       0.06
C       2.70       2.40       6.18
C       3.47       8.32      10.27
C       9.51       2.58       4.39
C       7.70       9.93       9.47
C       2.17      12.37       5.94
C       3.99       5.02       0.86
C       8.93       3.86       4.39
C       8.28       9.48       8.28
C       2.75      11.09       5.94
C       3.41       5.47       2.05
C       7.55       4.04       4.15
C       9.66       9.65       8.02
C       4.14      10.92       6.18
C       2.03       5.31       2.31
C       6.70       2.95       3.89
C      10.51      10.27       8.95
C       4.99      12.00       6.44
C       1.18       4.68       1.38
C       7.28       1.70       3.89
C       9.93      10.71      10.12
C       4.41      13.25       6.44
C       1.76       4.24       0.21
N       9.45       5.11       4.59
N       7.76       8.84       7.17
N       2.23       9.84       5.74
N       3.93       6.11       3.16
N       8.45       5.99       4.48
N       8.76       8.64       6.32
N       3.23       8.97       5.85
N       2.93       6.31       4.01
N       7.31       5.38       4.21
N       9.90       9.11       6.79
N       4.38       9.58       6.12
N       1.79       5.84       3.54
O      10.70      10.94       4.61
O       6.51       6.77       1.72
O       0.99       4.01       5.72
O       5.18       8.18       8.61
O       8.68      10.23       3.85
O       8.53       7.73       2.12
O       3.01       4.72       6.48
O       3.16       7.22       8.21
O      10.66       7.85       4.09
O       6.55       8.35       4.43
O       1.02       7.10       6.24
O       5.14       6.60       5.90
