114

Zn       9.79       8.11       9.70
Zn       9.84      11.00       9.69
H      13.99      11.35       8.69
H       5.69       7.54       8.33
H       5.71      11.76       9.11
H      13.85       7.22       9.85
H      18.40      10.87       8.18
H       1.12       7.80       8.37
H      16.22       6.94       9.14
H       3.27      11.86       8.61
H       3.26       7.62       7.83
H      16.34      11.08       7.95
H       8.93      11.19       5.43
H      10.64       7.76      13.89
H       8.71      10.99       2.96
H      10.84       7.79      16.37
H      11.16       7.44       3.06
H       8.42      11.37      16.47
H      11.78       8.41       0.99
H       7.77      10.29      18.45
H      11.87       9.01      18.08
H       7.68       9.68       1.36
H       8.68       6.11       7.94
H      11.38      12.94       8.26
H       8.16       3.66       8.00
H      11.90      15.39       8.36
H      11.10       1.32       9.95
H       8.59      17.79       9.59
H      11.60       3.56      12.12
H      10.47       2.32      11.98
H       7.69      15.56      11.76
H       8.78      16.87      11.72
H      11.23       5.64      12.46
H      11.53       6.90      11.31
H       7.91      13.50      12.13
H       7.85      12.26      10.95
C       9.46       9.52      12.28
C      10.15       9.55       7.13
C      12.37       9.49       9.79
C       7.28       9.57       9.19
C      13.79       9.31       9.36
C       5.84       9.64       8.79
C      14.49      10.39       8.80
C       5.15       8.48       8.40
C      15.81      10.23       8.39
C       3.79       8.53       8.12
C      16.47       9.00       8.54
C       3.08       9.75       8.23
C      15.73       7.91       9.05
C       3.81      10.91       8.54
C      14.41       8.06       9.46
C       5.16      10.86       8.83
C      17.90       8.83       8.30
C       1.63       9.85       8.18
C       9.42      10.38       4.89
C      10.15       8.54      14.47
C       9.29      10.26       3.51
C      10.27       8.57      15.86
C       9.91       9.20       2.82
C       9.66       9.58      16.62
C      10.68       8.28       3.55
C       8.90      10.55      15.94
C      10.80       8.43       4.93
C       8.79      10.49      14.55
C      10.17       9.46       5.63
C       9.41       9.50      13.78
C      10.81       8.63       0.54
C       8.74      10.06      18.90
C      11.02       9.30      18.70
C       8.53       9.39       0.75
C       9.80       9.64      18.08
C       9.75       9.07       1.36
C       9.07       5.46       8.72
C      10.83      13.62       8.92
C       8.77       4.12       8.78
C      11.12      14.96       9.00
C       9.29       3.33       9.83
C      10.39      15.78       9.89
C      10.12       3.94      10.78
C       9.38      15.20      10.67
C      10.40       5.34      10.63
C       9.12      13.80      10.50
C      10.07       0.96       9.96
C       9.61      18.15       9.76
C      11.94      17.79      10.03
C       7.72       1.32       9.79
C      10.65      17.23       9.93
C       9.01       1.88       9.88
N       9.85       6.06       9.65
N       9.86      13.05       9.67
N      10.64       3.31      11.91
N       8.65      15.87      11.63
N      11.30       5.92      11.49
N       8.05      13.25      11.15
N      13.13      16.94      10.27
N       6.52       2.18       9.74
N      11.67       7.45       5.62
N       7.93      11.49      13.90
O       9.27       8.41      11.69
O       9.85      10.68       7.63
O       9.75      10.64      11.75
O      10.39       8.48       7.76
O      11.76       8.48      10.28
O       7.81      10.64       9.64
O      11.84      10.63       9.60
O       7.88       8.45       9.07
O      13.05      16.11      11.18
O      14.12      17.15       9.56
O       6.46       3.10      10.57
O       5.65       1.90       8.91
O      12.72       7.88       6.11
O      11.31       6.26       5.59
O       7.14      11.08      13.04
O       8.04      12.68      14.26
