122

Zn       6.90      12.28       8.54
Zn      -2.19      -1.87       8.49
Zn      -2.09      -4.74      10.40
Zn       6.76      15.10       6.68
H       5.36      11.14      11.14
H       1.20      -2.14       7.86
H      -7.43      12.69       8.36
H       8.75      13.77       4.57
H      -0.12      -1.57       5.78
H       8.80       9.56       7.70
H       6.19      13.78       3.57
H       1.24      -4.74      11.33
H      -4.03       5.28       7.34
H      -4.54       7.70       7.45
H      11.26       4.54       5.58
H       7.48       7.70       2.04
H       6.94       6.32       0.05
H       0.64       1.72      14.65
H       1.17       3.10      16.64
H       4.50       7.54      14.86
H       3.82       6.53      17.03
H     -11.39       9.55      16.81
H      -2.64      -3.54      13.14
H      11.89      -2.10       8.19
H       3.54      12.29       9.39
H     -10.04      11.82      13.18
H       7.77      10.49       5.89
H      -4.37       1.28      10.48
H      -4.55       2.65       9.31
H      -3.01       2.42      10.22
H       0.94      -0.40      11.44
H       0.09       0.91      12.32
H       0.67       1.19      10.64
H      11.87       1.21       4.96
H      11.11       0.64       6.49
H      10.69      -0.15       4.93
C       6.36      11.45      11.45
C      13.95       0.82       7.12
C      -1.56      -1.65      12.56
C      10.92      -4.00       8.95
C       7.32      11.42       5.54
C       0.96      -2.78       8.71
C      -8.32      12.07       8.28
C       9.27      14.57       5.07
C      -0.92      -2.30       5.69
C       9.33      10.47       7.95
C       6.51      13.09       4.34
C      -4.15       0.37       7.96
C       0.98      -4.11      10.49
C       7.09      11.81       4.21
C       1.84      -3.40       9.62
C      -8.46      10.77       7.77
C      -8.73      15.25       4.66
C       9.58      -3.70       9.21
C       8.37      -3.52       9.38
C       7.04      -3.38       9.51
C       5.81      -3.32       9.58
C       4.47      -3.31       9.63
C      -2.38      -2.79      12.40
C       3.24      -3.34       9.64
C      -5.27       7.01       7.04
C      -6.53       7.51       6.63
C      11.71       6.59       6.05
C      12.00       5.22       5.99
C      13.21       4.73       6.51
C      -4.99       5.65       6.98
C      -6.96       8.82       6.91
C      13.44       3.34       6.63
C      13.62       2.15       6.84
C      11.93      -3.16       8.43
C      -7.55       9.83       7.28
C       0.41      -0.69      17.06
C       0.30      -0.10      15.78
C       0.66       1.26      15.64
C       0.95       2.03      16.75
C       7.64       9.55       0.93
C       7.45       8.15       1.05
C      -0.27      -0.78      14.67
C       7.62      10.38       2.07
C       7.38      11.07       3.05
C      -1.58      -1.06      11.27
C      -0.89      -1.20      13.71
C       4.69       7.19      16.98
C      12.12      15.58       1.06
C      -5.88      16.40       0.96
C     -12.25       8.89      16.86
C       6.15       8.66      15.69
C       5.07       7.76      15.77
C      -7.55      15.23       2.32
C       6.45       9.40      14.53
C       6.72      10.17      13.62
C       3.95      13.23       9.04
C      -8.07      15.16       3.43
C      13.50      -0.40       6.53
C     -10.88      11.80      12.50
C       7.08      11.07      12.61
C      10.44       7.07       5.59
C      -3.86       1.91       9.74
C      -5.13      16.71       2.13
C       0.25       0.46      11.34
C      11.49       0.33       5.50
N       7.08      12.32      10.72
N      -0.31      -3.08       9.01
N      -9.51      12.51       8.74
N       8.82      15.09       6.23
N      -1.89      -2.41       6.61
N       8.73      11.52       8.53
N       6.42      13.42       5.65
N      -0.29      -3.90      10.11
N      -3.99      -0.94       7.87
N      -2.83      -2.89      11.13
N       5.46      14.61       8.22
N      -2.34      -1.79      10.45
N       5.21      13.32       8.59
N      14.25      -1.42       6.96
N     -10.89      12.52      11.37
N       6.93      12.38       6.39
N       9.40       7.47       5.24
N      -4.51      16.97       3.09
O      -3.28       1.09       8.70
O      -1.00       0.04      10.75
O      12.52      -0.67       5.65
