164

Zn      -1.12       2.13       7.91
Zn       5.34       1.57       6.43
Zn       7.59       8.44       6.43
Zn       1.13       9.00       7.91
H      -0.56       4.26       1.90
H       5.91      -0.56      12.44
H       7.03       6.31      12.44
H       0.55      11.13       1.90
H       4.55       3.20      11.29
H      11.02       0.50       3.04
H       1.92       7.37       3.04
H      -4.55      10.07      11.29
H       1.61       2.31       6.62
H       8.07       1.39       7.72
H       4.86       8.26       7.72
H      -1.60       9.18       6.62
H       2.54       3.28       4.53
H      -3.92       0.42       9.81
H       3.93       7.29       9.81
H      10.39      10.15       4.53
H      -1.25       5.28       3.94
H       5.22      -1.58      10.40
H       7.72       5.29      10.40
H       1.25      12.15       3.94
H      -1.99       4.34       6.12
H       4.48      -0.64       8.21
H       8.46       6.23       8.21
H       1.99      11.21       6.12
H       4.89       1.69      14.33
H      11.36       2.00       0.00
H       1.58       8.88       0.00
H      -4.89       8.57      14.33
H       2.68       5.39       0.42
H      -3.78      -1.69      13.92
H       3.79       5.18      13.92
H      10.25      12.26       0.42
H      -3.64       2.86      12.35
H       2.83       0.84       1.99
H      10.11       7.71       1.99
H       3.64       9.73      12.35
H       7.25       2.89      10.93
H       0.79       0.81       3.41
H      -0.78       7.68       3.41
H       5.68       9.76      10.93
H       0.66       3.88       9.50
H       7.12      -0.18       4.84
H       5.81       6.69       4.84
H      -0.65      10.75       9.50
H       2.65       3.69      10.96
H       9.12       0.00       3.38
H       3.82       6.88       3.38
H      -2.65      10.57      10.96
H       2.49      -0.60      10.37
H       8.95       4.30       3.97
H       3.98      11.17       3.97
H      -2.48       6.27      10.37
H       0.52      -0.21       8.85
H       6.98       3.91       5.49
H       5.95      10.78       5.49
H      -0.51       6.66       8.85
C       1.01       2.99       6.00
C       7.48       0.71       8.33
C       5.46       7.58       8.33
C      -1.01       9.86       6.00
C       1.52       3.52       4.83
C       7.99       0.18       9.51
C       4.95       7.05       9.51
C      -1.52      10.39       4.83
C       0.70       4.31       4.03
C       7.16      -0.62      10.30
C       5.77       6.26      10.30
C      -0.69      11.19       4.03
C      -0.58       4.63       4.50
C       5.88      -0.93       9.84
C       7.05       5.94       9.84
C       0.59      11.50       4.50
C      -1.01       4.10       5.71
C       5.46      -0.40       8.63
C       7.48       6.47       8.63
C       1.01      10.97       5.71
C       1.22       4.84       2.73
C       7.69      -1.14      11.60
C       5.25       5.73      11.60
C      -1.22      11.71       2.73
C       5.86       1.94      13.90
C      12.32       1.75       0.44
C       0.61       8.63       0.44
C      -5.85       8.82      13.90
C       0.54       5.09       0.36
C      -5.92      -1.39      13.98
C       5.93       5.48      13.98
C      12.39      11.96       0.36
C      -4.67       2.24      14.14
C       1.79       1.46       0.20
C      11.14       8.33       0.20
C       4.68       9.11      14.14
C      -4.60       2.61      12.79
C       1.86       1.09       1.55
C      11.07       7.96       1.55
C       4.61       9.48      12.79
C       7.19       2.64      11.99
C       0.72       1.06       2.35
C      -0.72       7.93       2.35
C       5.75       9.51      11.99
C       5.96       2.30      12.55
C      -0.51       1.40       1.78
C       0.51       8.27       1.78
C       6.98       9.17      12.55
C       3.95       1.26      11.63
C      10.41       2.43       2.71
C       2.52       9.31       2.71
C      -3.94       8.14      11.63
C       1.10       2.91       9.72
C       7.57       0.79       4.62
C       5.37       7.66       4.62
C      -1.10       9.78       9.72
C       2.22       2.79      10.54
C       8.68       0.91       3.80
C       4.25       7.78       3.80
C      -2.21       9.66      10.53
C       2.74       1.51      10.78
C       9.20       2.19       3.56
C       3.73       9.06       3.55
C      -2.73       8.38      10.78
C       2.11       0.41      10.19
C       8.58       3.29       4.14
C       4.36      10.16       4.14
C      -2.11       7.28      10.19
C       1.02       0.61       9.37
C       7.48       3.09       4.97
C       5.45       9.96       4.97
C      -1.01       7.48       9.37
I      -2.83       3.59       9.16
I       3.63       0.11       5.18
I       9.30       6.98       5.18
I       2.84      10.46       9.16
I      -1.85      -0.07       6.86
I       4.62       3.77       7.48
I       8.32      10.64       7.48
I       1.85       6.80       6.85
N      -0.24       3.26       6.43
N       6.23       0.44       7.91
N       6.71       7.31       7.91
N       0.24      10.13       6.43
N       0.36       4.70       1.69
N       6.83      -1.00      12.64
N       6.11       5.87      12.64
N      -0.36      11.57       1.70
N       4.79       2.32      11.76
N      11.25       1.38       2.58
N       1.68       8.25       2.58
N      -4.78       9.19      11.75
N       0.52       1.84       9.14
N       6.98       1.86       5.20
N       5.95       8.73       5.20
N      -0.51       8.71       9.14
O       2.35       5.36       2.67
O      -4.12      -1.67      11.67
O       4.12       5.21      11.67
O      10.59      12.24       2.67
O       4.17       0.14      12.12
O      10.63       3.56       2.21
O       2.30      10.43       2.21
O      -4.16       7.01      12.12
