70

Zn       5.54       5.59       7.63
Zn       5.54       8.32       7.63
H       1.26       8.86       7.55
H       5.76       5.02       3.45
H       6.44       9.16      11.94
H       4.64       9.16       3.33
H       6.27       9.14      14.41
H       4.81       9.14       0.85
H       6.95      10.48       9.16
H       4.14      10.48       6.11
H       4.02       0.94       9.16
H       7.07       0.94       6.10
H       8.17       1.02       8.73
H       9.83       8.86       7.71
H       2.92       1.02       6.54
H       4.05       3.46       9.06
H       7.04       3.46       6.20
H       1.01       5.86       8.21
H      10.08       5.86       7.05
H       5.06       5.01      14.28
H       6.02       5.01       0.98
H       5.33       5.02      11.81
C       5.92       7.11      10.22
C       4.68       1.46       8.48
C       6.41       1.46       6.79
C       4.71       2.85       8.44
C       6.38       2.85       6.83
C       5.54       0.75       7.63
C       8.14       6.84       7.25
C       2.95       6.84       8.01
C       0.73       7.91       7.70
C      10.36       7.91       7.57
C       1.47       6.83       8.01
C       5.17       7.11       5.04
C       9.61       6.83       7.26
C       5.40       5.91      13.78
C       5.69       5.91       1.49
C       5.53       5.92      12.39
C       5.56       5.92       2.87
C       5.89       7.09      11.72
C       5.20       7.09       3.55
C       6.15       8.25      12.46
C       4.94       8.25       2.81
C       6.04       8.24      13.85
C       5.64       7.08      14.53
C       5.05       8.24       1.42
C       5.45       7.08       0.73
C       6.36      12.47       8.51
C       4.73      12.47       6.76
C       6.34      11.07       8.48
C       4.75      11.07       6.79
C       5.54      13.21       7.63
S       7.43      13.23       9.73
S       3.66      13.23       5.53
N       5.54      10.40       7.63
N       5.54       3.53       7.63
O       5.86       5.99       9.63
O       8.17      12.19      10.36
O       8.48       0.10       8.82
O       4.44       0.24       4.78
O       2.92      12.19       4.91
O       2.61       0.10       6.45
O       5.22       5.99       5.64
O       5.96       8.25       9.65
O       5.13       8.25       5.62
O       7.57       5.69       7.25
O       3.52       5.69       8.01
O       7.53       7.96       7.27
O       3.56       7.96       7.99
O       6.65       0.24      10.48
