55

Al       1.17      15.29       8.86
H       4.37      13.51      12.53
H       4.35      13.46      15.03
H       1.99      17.60       5.44
H       2.06      19.76       4.17
H       1.88      11.26       8.60
H       1.75       9.09       7.37
H       4.34      19.36       8.58
H       4.34      21.55       7.37
H       1.96      17.06      12.57
H       2.01      17.08      15.07
H       4.28      12.91       5.45
H       4.07      10.78       4.16
H       2.14       2.94       1.71
H       2.48       5.10       5.43
H       2.49       7.24       1.69
C       3.16      15.30      10.92
C       3.15      13.50       7.84
C       3.16      17.06       7.81
C       3.84      14.27      13.10
C       3.83      14.25      14.48
C       2.52      18.47       5.84
C       2.55      19.67       5.14
C       2.37      11.13       7.64
C       2.30       9.93       6.95
C       3.83      19.47       7.62
C       3.83      20.68       6.95
C       2.49      16.29      13.12
C       2.52      16.30      14.50
C       3.71      12.08       5.85
C       3.60      10.89       5.13
C       3.16      15.29      12.40
C       3.18      15.27      15.21
C       3.20      15.27      16.63
C       2.25       5.09       0.12
C       2.30       5.09       1.54
C       3.17      18.36       7.08
C       3.20      20.79       5.69
C       3.24      22.02       4.98
C       2.24       2.66       4.37
C       2.30       3.88       3.66
C       3.09      12.21       7.10
C       2.89       9.79       5.68
C       2.77       8.58       4.96
C       2.64       7.54       4.35
C       2.50       6.31       3.64
C       2.23       3.88       2.25
C       2.43       5.10       4.35
C       2.43       6.30       2.24
O       2.23      16.23       7.56
O       2.23      15.94      10.32
O       2.23      13.71       8.70
O       4.10      16.87       8.66
O       4.10      14.30       7.57
O       4.10      14.66      10.33
