248

Zn      26.16       8.47      16.28
Zn       9.27       7.42      13.74
Zn       9.32       5.71      16.42
Zn      10.85       8.54      16.27
Zn      20.16       1.63      22.96
Zn      18.56       4.41      22.76
Zn      18.49       2.73      25.50
Zn      16.95       1.66      22.90
Zn      18.54      12.56       9.80
Zn      16.95      11.50       7.25
Zn      20.14      11.51       7.20
Zn      18.49      14.28       7.09
Zn       9.25      15.59       0.76
Zn       1.61       0.95       0.60
Zn      16.95       0.96       0.61
Zn      18.52      14.97      29.42
H      29.92      15.28      20.56
H      18.54      16.05      12.60
H      23.39       2.71      20.46
H      20.30       6.98      19.48
H      21.19       7.58      20.91
H      23.00       8.49      19.40
H      22.11       7.90      17.98
H      13.72       9.77       9.29
H      16.79      10.73      13.58
H      15.90      12.27      13.50
H      14.10      11.31      14.97
H      14.98       9.76      15.06
H      23.37       9.76       9.28
H      21.18      12.27      13.48
H      20.29      10.73      13.56
H      22.09       9.76      15.04
H      22.98      11.30      14.96
H      15.88       6.48      20.25
H      13.66       1.62      19.78
H      12.77       2.21      21.21
H      11.00       3.20      19.70
H      11.89       2.61      18.27
H      18.53       9.23      30.20
H      22.97       0.38      29.95
H      26.05      -0.58      25.66
H      34.43      15.28      25.74
H      23.36      -1.17      24.26
H      24.24       0.38      24.19
H      11.93      -1.06      26.47
H      14.15       1.46      30.64
H      15.04      -0.08      30.73
H      16.80       0.86      29.18
H      15.91       2.40      29.10
H      20.67       4.72       2.96
H      11.92      13.54       3.27
H       5.77       0.40       2.31
H       4.88       0.99       3.74
H       6.64       0.00       5.25
H      16.80      16.82       3.83
H      13.70      -0.12       3.07
H      25.16      12.41       2.63
H      26.05      13.01       4.05
H      24.25      12.10       5.56
H      23.36      11.50       4.14
H      24.77      12.88      19.05
H       9.27       3.82       9.78
H      18.53       9.54      24.33
H      15.53       7.14       4.49
C      25.25       8.88      13.51
C       9.28       4.48      13.74
C      25.27       6.14      17.84
C      11.84       6.20      17.84
C      27.75      10.60      17.60
C      11.82       8.91      13.52
C      21.12       3.93      21.37
C      18.53       5.68      25.43
C      21.07       1.24      25.72
C      15.97       1.24      25.68
C      18.56      -0.46      21.61
C      16.00       3.98      21.35
C      15.99      11.11      10.01
C      18.52       9.40       5.91
C      21.10      11.11       9.98
C      21.07      13.84       5.67
C      18.53      15.52       9.78
C      15.96      13.82       5.68
C      11.81      16.04       2.16
C      18.57       3.06       1.92
C      25.24      16.06       2.16
C      25.24      -0.97      29.23
C      18.52      12.00      29.46
C      11.81      -0.98      29.20
C      26.65      12.57      18.86
C      28.89      14.97      20.37
C      27.74      11.83      18.39
C      27.81      15.70      20.83
C      28.48      13.83      19.65
C      27.08      13.71      19.58
C       9.27       3.10      11.56
C       9.27      -0.50      11.93
C       9.27       3.25      12.95
C       9.27      -0.64      10.55
C       9.27       0.86      12.30
C       9.27       1.73      11.19
C      22.17       4.49      20.48
C      24.23       5.56      18.74
C      22.11       5.79      19.97
C      24.27       4.25      19.27
C      23.11       6.30      19.13
C      23.29       3.73      20.10
C      21.30       7.07      19.94
C      22.43       7.65      18.99
C      14.94      10.55      10.90
C      12.86       9.45      12.61
C      14.99      10.65      12.29
C      12.83       9.36      11.20
C      13.99      10.12      13.11
C      13.82       9.88      10.37
C      15.80      11.18      13.46
C      14.66      10.57      14.39
C      22.15      10.55      10.88
C      24.21       9.44      12.60
C      22.09      10.65      12.27
C      24.25       9.35      11.19
C      23.09      10.12      13.09
C      23.27       9.88      10.35
C      21.28      11.18      13.44
C      22.41      10.57      14.37
C      14.94       4.54      20.47
C      12.90       5.66      18.74
C      13.81       3.81      20.08
C      14.05       6.38      19.15
C      12.84       4.36      19.25
C      15.03       5.85      19.98
C      13.11       2.48      20.20
C      12.00       3.09      19.25
C      18.54       8.24      25.73
C      18.53       9.46      29.14
C      18.54       6.93      26.20
C      18.53      10.77      28.67
C      18.54       8.54      28.07
C      18.54       9.16      26.81
C      24.19      -0.41      28.34
C      22.12       0.69      26.63
C      24.24      -0.51      26.95
C      22.09       0.78      28.04
C      23.24       0.02      26.13
C      23.07       0.26      28.87
C      25.05      -1.04      25.78
C      23.92      -0.43      24.85
C      12.87      -0.42      28.31
C      14.91       0.66      26.55
C      13.99       0.25      28.80
C      13.76      -0.02      26.08
C      14.97       0.77      27.94
C      12.78      -0.55      26.92
C      14.70       0.72      30.05
C      15.80       1.31      29.09
C      17.41       7.43       4.68
C      19.65       5.02       3.16
C      18.51       8.17       5.13
C      18.56       4.30       2.70
C      19.23       6.16       3.88
C      17.83       6.29       3.96
C      12.87      15.48       3.05
C      14.90      14.36       4.79
C      13.99      16.21       3.44
C      13.75      13.64       4.37
C      14.96      15.66       4.28
C      12.77      14.16       3.54
C       5.43       0.13       3.32
C      15.80      16.93       4.27
C      24.19      15.50       3.06
C      22.12      14.43       4.79
C      24.25      14.20       3.56
C      22.09      15.74       4.26
C      23.25      13.69       4.40
C      23.07      16.27       3.43
C      25.06      12.92       3.60
C      23.93      12.35       4.54
S      29.27      12.54      18.83
S      26.27      15.01      20.39
S       9.28       1.72      13.79
S       9.26       0.88       9.70
S      18.54       6.82      27.94
S      18.53      10.88      26.93
S      20.04       7.45       4.68
S      17.02       5.00       3.15
O      27.80       7.54      15.70
O      25.03       9.05      14.77
O       9.26       5.58      13.10
O      26.27       5.42      17.54
O      26.24       8.30      12.98
O      25.05       7.34      17.44
O       9.31       4.33      15.02
O      10.89       5.38      17.55
O      28.91      10.15      17.29
O      11.95       7.40      17.43
O      26.62      10.08      17.30
O      10.84       8.29      12.99
O      12.00       9.11      14.77
O      18.55       2.60      23.53
O      21.28       2.73      21.78
O      18.56       5.78      24.16
O      20.08       1.85      26.24
O      20.14       4.71      21.64
O      21.28       1.05      24.47
O      18.50       4.60      26.12
O      16.91       1.85      26.28
O      17.41       0.04      21.89
O      15.85       1.08      24.42
O      19.70       0.00      21.93
O      16.99       4.73      21.64
O      15.83       2.77      21.74
O      18.55      12.47       7.84
O      16.96      11.70      10.59
O      17.39       9.89       6.24
O      21.26      10.95       8.73
O      15.82      10.95       8.76
O      20.13      11.70      10.57
O      19.68       9.89       6.19
O      21.27      12.63       6.04
O      18.50      15.64       8.51
O      20.08      14.58       5.98
O      18.54      14.43      10.45
O      15.84      12.63       6.09
O      16.91      14.63       5.96
O      18.54      15.07      31.38
O      10.83      15.27       1.87
O      19.71       2.58       1.62
O      25.09      17.27       1.77
O      11.99      17.24       1.76
O      26.21      15.28       1.87
O      17.42       2.58       1.62
O      25.09      -0.79      30.48
O      18.52      13.10      28.80
O      26.21      -1.57      28.65
O      18.52      11.87      30.73
O      11.99      -0.82      30.46
O      10.83      -1.57      28.64
O      25.35      12.22      18.64
O       9.27       4.15      10.70
O      18.55       8.57      24.41
O      16.13       7.79       4.91
F      25.31       3.42      18.98
F      11.80       8.73      10.58
F      25.28       8.73      10.57
F      14.24       7.66      18.73
F      21.05       1.40      28.66
F      13.56      -0.20      24.75
F      13.56      12.36       4.79
F      21.05      16.57       4.55
