152

Zn       9.74       8.91      14.63
Zn       6.96       8.90      14.52
Zn       7.03       8.91      25.84
Zn       9.81       8.88      25.67
H       4.82      10.41      15.94
H       2.30      10.45      16.00
H       4.85       7.40      13.10
H      11.86      10.36      16.09
H      11.87       7.48      13.11
H      14.39       7.42      13.05
H      10.46      13.15      14.59
H      10.48      15.66      14.56
H       6.17      13.18      14.57
H      10.49       4.71      14.58
H       6.20       4.57      14.55
H       6.28       2.06      14.55
H      11.42       9.81      21.41
H      11.44       8.03      21.41
H      11.43       8.03      18.88
H      11.41       9.82      18.89
H       6.22       9.02       0.96
H       6.28       8.99       3.47
H      10.51       8.99       0.85
H       6.24       8.91      10.33
H      10.53       8.93      10.27
H      10.49       8.95       7.76
H      11.98      10.33      24.24
H      14.50      10.39      24.25
H      11.90       7.44      27.21
H       4.93      10.43      24.39
H       4.88       7.40      27.21
H       2.36       7.35      27.24
H       6.29      13.22      25.73
H       6.37      15.73      25.74
H      10.58      13.09      25.71
H       6.22       4.62      25.77
H      10.51       4.63      25.74
H      10.52       2.12      25.74
C       8.29      11.52      14.60
C       8.42       8.89      17.20
C       8.30       6.28      14.56
C       8.39       8.90      11.94
C       8.39      11.51      25.72
C       8.46       8.88      23.13
C       8.35       6.27      25.77
C       8.50       8.88      28.38
C       4.22       9.74      15.32
C       2.83       9.76      15.35
C       2.10       8.89      14.51
C       2.85       8.02      13.68
C       4.24       8.05      13.72
C       0.70       8.89      14.53
C      16.00       8.92      14.58
C      14.60       8.93      14.60
C      13.86       9.77      15.46
C      12.46       9.73      15.43
C      12.48       8.11      13.76
C      13.86       8.08      13.73
C       8.31      13.02      14.59
C       9.53      13.72      14.58
C       9.54      15.11      14.57
C       8.33      15.85      14.56
C       7.12      15.12      14.56
C       7.11      13.73      14.57
C       8.38      17.25      14.55
C       8.43       0.55      14.54
C       8.43       1.96      14.55
C       9.62       2.73      14.56
C       9.58       4.12      14.57
C       8.34       4.78      14.56
C       7.15       4.04      14.55
C       7.20       2.65      14.55
C       8.32       8.87      21.63
C       8.31       8.87      18.70
C       9.48       8.89      20.85
C       7.11       8.83      19.46
C       9.47       8.90      19.46
C       7.11       8.83      20.88
C      10.99       8.91      20.94
C      10.99       8.92      19.36
C       8.36       8.99       0.76
C       7.16       9.00       1.50
C       7.20       8.98       2.88
C       8.43       8.97       3.59
C       9.62       8.97       2.82
C       9.59       8.98       1.43
C       8.42       8.95       4.99
C       8.36       8.94       6.21
C       8.35       8.93       7.62
C       7.15       8.92       8.37
C       7.16       8.91       9.76
C       8.39       8.91      10.44
C       9.59       8.93       9.72
C       9.57       8.94       8.34
C      12.57       9.69      24.91
C      13.95       9.72      24.91
C      14.67       8.87      25.79
C      13.91       8.03      26.63
C      12.52       8.07      26.57
C      16.08       8.88      25.79
C       0.77       8.91      25.76
C       2.18       8.92      25.76
C       2.93       9.80      24.95
C       4.32       9.77      25.00
C       4.28       8.06      26.59
C       2.90       8.04      26.60
C       8.43      13.01      25.71
C       7.24      13.75      25.72
C       7.28      15.14      25.73
C       8.52      15.83      25.73
C       9.70      15.06      25.72
C       9.66      13.67      25.71
C       8.52      17.24      25.74
C       8.41       0.54      25.75
C       8.38       1.94      25.75
C       7.16       2.68      25.76
C       7.16       4.07      25.77
C       8.37       4.77      25.76
C       9.58       4.07      25.75
C       9.59       2.68      25.75
Br       1.99       6.81      12.51
Br      14.72      10.94      16.66
Br       5.46      16.06      14.54
Br      11.31       1.86      14.56
Br      11.30       8.95       3.71
Br       5.47       8.93       7.47
Br      14.74       6.86      27.85
Br       2.08      11.01      23.78
Br      11.39      15.93      25.73
Br       5.50       1.75      25.77
Br       5.41       8.75      18.59
Br       5.43       8.74      21.77
N       4.90       8.90      14.52
N      11.80       8.92      14.60
N      11.87       8.88      25.72
N       4.97       8.92      25.81
O       9.42      10.93      14.64
O       7.15      10.96      14.56
O       7.36       8.89      16.51
O       9.61       8.92      16.72
O       7.16       6.83      14.50
O       9.42       6.89      14.62
O       9.51       8.89      12.54
O       7.24       8.90      12.51
O       7.24      10.97      25.78
O       9.51      10.90      25.66
O       9.65       8.88      23.58
O       7.41       8.90      23.83
O       9.48       6.85      25.68
O       7.22       6.84      25.86
O       7.34       8.92      27.84
O       9.61       8.85      27.76
