240

Zn      13.66       9.39      15.43
Zn      -4.05       7.17      15.43
Zn       4.16       7.15      15.44
Zn       5.44       9.37      15.44
Zn       1.36      16.51      15.45
Zn       8.28       0.04      15.45
Zn      -4.07       7.13       0.00
Zn      -5.25       9.43      30.86
Zn       5.42       9.36       0.00
Zn       4.14       7.14       0.02
Zn       8.23       0.02       0.02
Zn      10.79       0.02       0.01
H       9.56       8.02      15.43
H       7.40       4.29      15.44
H      11.71       4.28      15.43
H      -2.09      12.26      15.44
H       2.21      12.27      15.46
H       0.06       8.53      15.44
H      -5.79      10.15      11.14
H      -3.63       6.37       4.29
H      -5.78      10.09       4.27
H      -5.78      10.10       6.70
H      -3.63       6.43      11.16
H      -3.63       6.42       8.73
H      13.22      10.16      19.72
H      -3.56       6.43      26.57
H      13.27      10.14      26.59
H      13.26      10.14      24.15
H      -3.61       6.44      19.70
H      -3.60       6.44      22.14
H       3.72       6.38      11.15
H       5.89      10.14       4.30
H       3.75       6.41       4.28
H       3.75       6.41       6.72
H       5.86      10.11      11.17
H       5.87      10.12       8.73
H       3.73       6.39      19.74
H       5.90      10.19      26.57
H       3.77       6.46      26.62
H       3.73       6.45      24.18
H       5.87      10.13      19.70
H       5.86      10.15      22.14
H      11.72       0.04      11.15
H       7.37       0.03       4.31
H      11.67       0.05       4.28
H      11.68       0.05       6.72
H       7.42       0.03      11.18
H       7.41       0.03       8.75
H       2.24      16.52      19.73
H      -2.08      16.51      26.60
H       2.23      16.52      26.60
H       2.22      16.49      24.16
H      -2.06      16.50      19.72
H      -2.06      16.49      22.16
H      11.69       4.26       0.03
H       7.38       4.25       0.04
H       9.53       7.99       0.03
H       0.13       8.59      30.82
H       2.29      12.32      30.81
H      -2.01      12.33      30.83
C      14.29       8.30      18.03
C      12.07       6.97      15.43
C      -4.71       8.30      12.83
C      -2.44       9.57      15.43
C       4.80       8.25      18.05
C       7.06       6.98      15.44
C       4.79       8.24      12.84
C       2.57       9.58      15.45
C       0.09      16.51      18.05
C       9.54       2.64      15.44
C       9.58       0.04      12.85
C       0.05      13.91      15.45
C      -4.62       8.29      28.26
C      12.03       6.95       0.02
C      -4.70       8.23       2.60
C      -2.37       9.64      30.83
C       4.88       8.32      28.27
C       7.02       6.94       0.03
C       4.80       8.28       2.61
C       2.64       9.63      30.84
C       9.57       0.09      28.27
C       9.54       2.61       0.03
C       9.50       0.02       2.62
C       0.15      13.97      30.84
C       8.35       6.23      15.44
C       9.56       6.93      15.43
C      10.77       6.22      15.43
C      10.76       4.83      15.43
C       9.55       4.13      15.44
C       8.34       4.83      15.44
C       0.06      12.42      15.45
C      -1.15      11.72      15.44
C      -1.15      10.32      15.44
C       0.06       9.62      15.44
C       1.27      10.32      15.45
C       1.27      11.72      15.45
C      -4.70       8.28      11.34
C      -4.71       8.24       4.09
C      -5.31       9.32      10.62
C      -5.30       9.30       9.24
C      -4.10       7.20       4.81
C      -4.11       7.22       6.19
C      -5.31       9.28       4.81
C      -5.30       9.28       6.20
C      -4.10       7.24      10.62
C      -4.11       7.24       9.23
C      -4.71       8.27       8.46
C      -4.70       8.25       6.97
C      14.31       8.29      19.52
C      -4.64       8.29      26.77
C      13.71       9.33      20.24
C      13.72       9.32      21.62
C      -4.04       7.25      26.05
C      -4.06       7.26      24.67
C      13.75       9.33      26.05
C      13.74       9.32      24.66
C      14.91       7.26      20.24
C      -4.08       7.27      21.63
C      14.32       8.30      22.40
C      14.34       8.29      23.89
C       4.80       8.25      11.35
C       4.81       8.27       4.10
C       4.20       7.21      10.63
C       4.21       7.23       9.25
C       5.41       9.31       4.82
C       5.41       9.29       6.20
C       4.22       7.23       4.82
C       4.22       7.23       6.21
C       5.40       9.29      10.63
C       5.39       9.29       9.24
C       4.80       8.25       8.47
C       4.82       8.27       6.98
C       4.80       8.26      19.54
C       4.84       8.32      26.78
C       4.20       7.23      20.26
C       4.21       7.25      21.64
C       5.42       9.36      26.06
C       5.40       9.34      24.67
C       4.23       7.28      26.07
C       4.22       7.28      24.68
C       5.39       9.31      20.25
C       5.39       9.31      21.64
C       4.79       8.29      22.42
C       4.81       8.31      23.90
C       9.56       0.04      11.35
C       9.52       0.04       4.11
C      10.76       0.04      10.64
C      10.74       0.04       9.25
C       8.32       0.04       4.83
C       8.35       0.04       6.21
C      10.73       0.04       4.82
C      10.72       0.05       6.21
C       8.36       0.03      10.64
C       8.37       0.04       9.25
C       9.56       0.04       8.47
C       9.53       0.04       6.99
C       0.08      16.51      19.54
C       0.08      16.53      26.78
C       1.28      16.51      20.25
C       1.27      16.50      21.64
C      -1.12      16.51      26.07
C      -1.11      16.49      24.69
C       1.28      16.51      26.06
C       1.27      16.50      24.67
C      -1.12      16.50      20.26
C      -1.11      16.49      21.65
C       0.09      16.49      22.42
C       0.07      16.49      23.90
C       9.53       4.10       0.03
C      10.74       4.80       0.03
C      10.74       6.20       0.03
C       9.53       6.90       0.03
C       8.32       6.20       0.03
C       8.32       4.80       0.04
C       1.35      10.38      30.82
C       0.13       9.68      30.82
C      -1.08      10.38      30.82
C      -1.07      11.78      30.82
C       0.14      12.48      30.82
C       1.35      11.78      30.81
O      13.72       9.29      17.45
O      14.86       7.32      17.44
O      13.14       6.27      15.43
O      12.00       8.24      15.43
O      -4.14       7.31      13.42
O      -5.28       9.29      13.41
O      -3.52      10.26      15.43
O      -2.37       8.29      15.43
O       4.23       7.26      17.47
O       5.36       9.23      17.45
O       7.13       8.26      15.44
O       5.98       6.29      15.44
O       5.36       9.23      13.43
O       4.22       7.26      13.42
O       2.51       8.30      15.45
O       3.64      10.28      15.44
O      10.72       0.05      17.47
O      -1.05      16.51      17.46
O       8.40       2.06      15.44
O      10.68       2.05      15.44
O       8.44       0.04      13.44
O       1.23      16.50      13.42
O       1.19      14.50      15.45
O      -1.09      14.49      15.45
O      -4.04       7.30      28.84
O      -5.18       9.28      28.85
O      11.96       8.23       0.01
O      13.11       6.26       0.02
O      -5.26       9.21       2.01
O      -4.12       7.24       2.02
O      -2.31       8.37      30.84
O      -3.44      10.34      30.84
O       5.46       9.31      28.84
O       4.32       7.33      28.87
O       5.95       6.24       0.03
O       7.09       8.22       0.02
O       4.22       7.30       2.03
O       5.36       9.27       2.03
O       3.72      10.32      30.84
O       2.57       8.35      30.86
O       8.43       0.10      28.86
O      10.70       0.10      28.86
O      10.68       2.03       0.02
O       8.40       2.03       0.03
O      10.64       0.01       2.03
O       8.36       0.01       2.04
O      -1.09      14.48       0.00
O       1.29      14.55      30.85
F      -5.93      10.37       8.65
F      -3.49       6.15       6.78
F      13.10      10.40      22.20
F      -3.44       6.19      24.09
F       3.60       6.15       8.67
F       6.02      10.37       6.78
F       3.59       6.18      22.23
F       6.00      10.42      24.09
F      11.98       0.05       8.67
F       7.11       0.04       6.80
F       2.51      16.51      22.21
F      -2.35      16.47      24.11
