117

Mg       2.77      -0.82      17.13
Mg       0.53       1.01      16.78
Mg      -1.71      -0.20      15.37
Mg       3.26      13.90       9.22
Mg      -1.21      15.27       7.99
Mg       1.02      13.52       7.42
H       4.48      -6.11      13.82
H       2.25       0.79      23.02
H       0.01       5.32      12.45
H       4.65      -3.99      14.72
H       2.42       0.51      20.73
H       0.18       3.47      13.83
H       0.18      -2.94      12.88
H      -2.06      -1.60      20.75
H       2.42       4.54      15.66
H       1.31      -5.04      12.19
H      -0.92      -1.16      22.92
H       3.55       6.19      14.19
H      -2.29      21.10      11.05
H      -0.05      13.24       0.85
H       2.18       8.35      12.75
H      -1.26      17.55      10.64
H       0.98      14.67       4.12
H       3.22      10.47       9.88
H       0.91      18.87       9.15
H       3.15      12.72       3.73
H      -1.33      11.11      11.75
H       2.41      20.57      10.16
H       4.64      12.73       1.75
H       0.16       9.38      12.73
C       1.01      19.10      12.75
C       3.25      15.72       1.73
C      -1.24       7.87      10.17
C       3.08      -7.13      12.84
C       0.85       0.44      24.39
C      -1.39       6.67      12.06
C       3.02      -4.70      13.47
C       0.79      -0.23      21.97
C      -1.45       4.91      13.85
C       3.67      -3.77      14.30
C       1.43       0.04      20.75
C      -0.80       3.73      14.23
C       3.05      -2.56      14.69
C       0.82      -0.23      19.52
C      -1.42       2.79      15.08
C       1.73      -2.31      14.20
C      -0.51      -0.78      19.54
C       3.97       3.08      15.55
C       1.17      -3.19      13.27
C      -1.07      -1.15      20.77
C       3.40       4.33      15.25
C       1.78      -4.36      12.88
C      -0.45      -0.90      21.98
C       4.02       5.25      14.43
C       0.86      -1.25      14.72
C      -1.37      -0.86      18.36
C       3.10       2.09      16.20
C      -0.74      20.11      11.79
C       1.50      14.38       1.33
C       3.73       8.19      11.53
C      -2.69      19.16      10.50
C      -0.45      13.74       2.80
C       1.78       9.79      11.34
C      -2.25      17.85      10.31
C      -0.01      14.23       4.03
C       2.22      10.61      10.30
C       3.64      16.89       9.69
C      -0.83      14.18       5.17
C       1.41      11.63       9.78
C       2.31      17.26       9.30
C       4.55      13.66       5.05
C       0.08      11.78      10.29
C       1.91      18.60       9.47
C       4.15      13.13       3.80
C      -0.33      10.96      11.36
C       2.74      19.54      10.04
C       4.98      13.15       2.70
C       0.50      10.00      11.90
C       1.33      16.31       8.75
C       3.57      13.66       6.14
C      -0.90      12.73       9.74
N       1.58      20.22      13.16
N       3.82      15.51       0.55
N      -0.67       6.95      10.94
N       3.63      -5.95      13.30
N       1.40       0.25      23.14
N      -0.85       5.69      12.85
N      -0.28      21.34      12.15
N       1.96      14.07       0.09
N       4.18       7.27      12.41
N      -1.91      20.15      11.10
N       0.33      13.76       1.64
N       2.55       8.77      11.91
N      -0.14      18.95      12.08
N       2.10      15.21       2.19
N       4.33       8.52      10.37
Cl       1.85      17.64      13.12
Cl       4.09      16.77       2.80
Cl      -0.39       8.27       8.72
O      -0.30      -1.06      14.24
O       4.18      -1.37      18.43
O       1.94       2.42      16.61
O       1.28      -0.56      15.74
O      -0.96      -0.31      17.25
O       3.52       0.87      16.29
O       3.69      -1.73      15.52
O       1.46       0.08      18.38
O      -0.78       1.65      15.38
O       0.17      16.69       8.41
O       2.41      13.17       5.98
O      -2.07      12.84      10.24
O       1.67      15.06       8.64
O       3.90      14.19       7.28
O      -0.57      13.45       8.71
O       4.18      15.68       9.47
O      -0.30      14.60       6.33
O       1.94      12.42       8.84
