46

Al       3.27       4.68       5.28
Al       6.70       4.68       5.29
H       4.96       6.07       6.39
H       8.42       3.51       3.95
H       2.96       0.54       5.72
H      10.45       8.83       4.88
H       6.15       6.51       9.54
H       5.24       4.97       9.41
H       8.70       5.80       1.35
H       2.77       7.32       1.45
C       8.39       4.42       7.65
C       8.45       7.08       5.22
C       5.02       4.86       2.91
C       4.96       2.29       5.37
C       8.36       8.57       5.22
C       5.05       0.80       5.38
C       7.16       9.26       5.44
C       6.25       0.11       5.16
C       3.90       0.02       5.53
C       9.51       9.35       5.07
C       8.40       4.21       9.12
C       5.00       4.96       1.42
C       7.37       4.70       9.94
C       6.02       4.45       0.61
C       3.96       5.60       0.73
C       9.44       3.55       9.80
C       6.07       5.48       9.92
C       2.67       6.37       0.91
N       5.89       8.51       5.47
N       7.53       0.84       5.12
O       9.51       4.64       7.08
O       7.34       6.48       5.38
O       6.16       4.93       3.47
O       3.81       2.82       5.47
O       3.89       4.69       3.47
O       6.07       2.89       5.20
O       7.24       4.41       7.10
O       9.59       6.55       5.11
O       4.98       5.24       5.87
O       8.42       4.14       4.69
O       5.40       8.26       4.36
O       5.37       8.26       6.57
O       8.05       1.04       4.02
O       8.01       1.12       6.22
F       7.05       3.75       1.15
F      10.45       2.97       9.13
