129

Zn       7.30       6.88      14.42
Zn       9.19       8.66       0.20
Zn       5.02       4.73      14.22
Zn       9.63       6.86      12.21
Zn       6.78       4.17       2.21
Zn       4.57       6.52       2.21
Zn       7.42       9.21      12.21
H       8.04      13.20      11.06
H       0.55       6.14       3.35
H       6.16       0.19       3.35
H      13.65       7.24      11.06
H       9.53      12.88       0.52
H       0.78       4.64      13.90
H       4.68       0.50      13.90
H      13.42       8.74       0.52
H       8.92       2.36       0.40
H      11.32       4.61      14.02
H       5.28      11.03      14.02
H       2.88       8.77       0.40
H       8.61       8.11       3.32
H       5.60       5.27      11.09
H      11.34      10.68       5.10
H       2.86       2.70       9.32
H      11.85       9.94       3.56
H       3.57       2.14      10.86
H       2.35       3.44      10.86
H      10.63      11.24       3.56
H      10.08       9.49       6.35
H       4.13       3.89       8.07
H       8.44       9.19       5.74
H       4.52       5.51       8.68
H       5.76       4.19       8.68
H       9.68       7.88       5.74
C       8.42       2.87      12.86
C      10.84       5.15       1.55
C       5.79      10.52       1.55
C       3.36       8.23      12.86
C       7.86       2.11      11.82
C      11.62       5.66       2.60
C       6.34      11.27       2.60
C       2.58       7.72      11.82
C       7.73       0.73      11.89
C      13.01       5.71       2.53
C       6.47      12.65       2.53
C       1.19       7.67      11.89
C       8.96      13.07      13.02
C       0.63       5.21       1.40
C       5.24       0.32       1.40
C      13.58       8.17      13.02
C       8.79       0.78      14.06
C      12.90       4.66       0.36
C       5.42      12.60       0.36
C       1.30       8.72      14.06
C       8.89       2.17      13.99
C      11.51       4.64       0.43
C       5.31      11.21       0.43
C       2.69       8.75      13.99
C       8.47       4.37      12.87
C       9.33       5.19       1.55
C       5.73       9.01       1.55
C       4.87       8.20      12.87
C       8.78      11.58      13.12
C       2.12       5.30       1.30
C       5.42       1.80       1.30
C      12.08       8.08      13.12
C       8.14       7.67       9.77
C       6.06       5.71       4.65
C       7.70       7.25       8.38
C       6.50       6.13       6.04
C       8.23       6.11       7.76
C       7.61       5.53       6.66
C       5.97       7.27       6.66
C       6.59       7.85       7.76
C       9.40       8.85       3.17
C       4.81       4.53      11.25
C      11.00      10.37       4.11
C       3.20       3.01      10.31
C       9.50       8.95       5.60
C       4.71       4.43       8.82
N       7.38       2.79      10.61
N      10.98       6.18       3.81
N       6.82      10.60       3.81
N       3.22       7.20      10.61
N       9.55       5.55       8.19
N       8.09       4.18       6.23
N       4.65       7.83       6.23
N       6.11       9.20       8.19
N       9.94       9.37       4.26
N       4.26       4.01      10.15
O       8.50       8.01      13.30
O       5.70       5.37       1.12
O       7.45       4.99      13.28
O       8.78       6.25       1.14
O       6.76       8.39       1.14
O       5.43       7.14      13.28
O       9.59       4.90      12.55
O       8.74       4.10       1.86
O       4.61       8.48       1.86
O       5.46       9.28      12.55
O       8.04      11.06      12.21
O       2.69       6.01       2.20
O       6.16       2.33       2.20
O      11.51       7.37      12.21
O       9.35      10.99      14.08
O       2.68       4.70       0.34
O       4.85       2.40       0.34
O      11.52       8.68      14.08
O       7.55       4.02      10.53
O       9.74       6.09       3.89
O       6.65       9.36       3.89
O       4.46       7.30      10.53
O       6.82       2.11       9.73
O      11.69       6.70       4.68
O       7.38      11.28       4.68
O       2.51       6.69       9.73
O       9.05       6.97      10.29
O       6.71       4.76       4.12
O       5.15       6.42       4.12
O       7.49       8.62      10.29
O       9.58       4.41       8.66
O       9.23       4.08       5.76
O       4.62       8.97       5.76
O       4.98       9.30       8.66
O      10.51       6.28       7.94
O       7.31       3.26       6.48
O       3.69       7.10       6.48
O       6.89      10.12       7.94
O       9.77       9.21       2.01
O       4.43       4.17      12.40
