56

Cu       5.05       6.72       6.72
Si       9.12       6.72       6.72
H       2.98       6.72       4.59
H       2.87       6.72       2.13
H       7.21       6.72       2.10
H       7.14       6.72       4.58
H       2.89       6.71      11.34
H       7.23       6.72      11.31
H       7.13       6.72       8.85
H       2.97       6.72       8.86
H       7.08       6.72      13.43
H       3.02       6.72       0.01
H       2.98       4.59       6.72
H       2.87       2.13       6.72
H       7.21       2.10       6.72
H       7.14       4.58       6.72
H       2.89      11.34       6.72
H       7.23      11.31       6.72
H       7.13       8.85       6.72
H       2.97       8.86       6.72
H       7.08      13.43       6.72
H       3.02       0.01       6.72
C       3.89       6.72       4.00
C       3.85       6.72       2.62
C       5.05       6.72       1.87
C       6.24       6.72       2.61
C       6.22       6.72       4.00
C       5.09       6.72       0.42
C       5.01       6.72      13.03
C       3.86       6.71      10.83
C       5.06       6.72      11.57
C       6.25       6.72      10.83
C       6.21       6.72       9.44
C       3.89       6.72       9.44
C       3.89       4.00       6.72
C       3.85       2.61       6.72
C       5.05       1.87       6.72
C       6.24       2.61       6.72
C       6.22       4.00       6.72
C       5.09       0.41       6.72
C       5.01      13.02       6.72
C       3.86      10.83       6.72
C       5.06      11.57       6.72
C       6.25      10.82       6.72
C       6.21       9.44       6.72
C       3.89       9.44       6.72
N       5.06       6.72       4.68
N       5.05       6.72       8.76
N       5.06       4.68       6.72
N       5.05       8.76       6.72
F       2.72       6.71       6.72
F       7.38       6.72       6.72
F       9.12       7.93       5.51
F       0.98       5.51       7.93
F       0.98       5.51       5.51
F       9.13       7.93       7.93
