50

Al       3.14       5.08       5.31
Al       6.47       5.12       5.27
H       4.81       4.48       3.69
H       8.13       6.66       5.99
H       7.09       3.48       8.17
H       8.70       2.10       9.41
H       3.41       3.31       2.42
H       5.25       2.22       1.22
H       6.35       6.10       1.17
H       9.57       5.63       9.31
H       5.83       2.14       6.77
H       4.23       0.83       8.10
H       9.53       7.88       7.23
H       7.69       9.01       8.38
H       6.57       9.27       4.49
H       3.35       1.11       4.56
C       8.11       2.68       5.44
C       8.13       5.12       2.85
C       4.80       7.54       5.39
C       4.81       4.83       7.70
C       4.81       4.64       9.19
C       5.86       3.95       9.89
C      10.37       5.16       9.88
C       6.97       3.33       9.24
C       7.87       2.56       9.94
C       8.18       5.00       1.36
C       7.17       5.62       0.64
C       2.60       4.33       0.68
C       3.53       3.49       1.36
C       4.56       2.87       0.68
C       8.11       1.19       5.56
C       7.07       0.45       6.22
C       2.55       0.52       5.01
C       5.96       1.06       6.87
C       5.06       0.33       7.61
C       4.75       9.02       5.58
C       5.75       9.78       4.99
C      10.33       9.66       6.29
C       9.40       8.95       7.10
C       8.37       9.59       7.76
O       9.25       3.24       5.37
O       6.99       5.19       3.40
O       5.95       7.00       5.28
O       3.67       4.89       7.14
O      10.33       6.93       5.33
O       5.92       4.97       7.10
O       6.99       3.29       5.37
O       2.61       5.18       3.46
O       4.81       4.57       4.66
O       8.12       5.70       5.86
