118

Zn      24.59      16.29       1.31
Zn       9.84      16.33       1.33
Zn       8.13       4.60      13.96
Zn       8.19      13.55       1.23
Zn      18.84       9.10       7.74
Zn      15.61       8.95       7.60
Zn      17.13      11.79       7.59
Zn      17.08      10.01      10.24
H      19.42       3.11       4.50
H      15.52       6.13       4.72
H      14.54       4.95       2.93
H      15.26       3.50       2.25
H      24.07       7.48      11.76
H      19.26       7.74      12.90
H      19.67       6.37      14.80
H      12.79       0.90       0.01
H      23.07      11.40       2.91
H      20.24      14.00       6.01
H      21.44      15.96       5.41
H      22.63      15.96       4.12
H      11.19       5.34      11.39
H      14.18       9.01      12.81
H      13.05       9.06      14.90
H       3.34       2.88       0.08
H      10.29      11.99       4.43
H      15.12      13.04       4.20
H      14.65      14.62       2.50
H      13.03      14.98       1.98
H      17.73      15.30      14.25
H      16.00      15.32       9.62
H      15.36      17.59       9.91
H      15.65      18.46      11.41
C      17.58       2.40       2.75
C      17.49       3.54       3.67
C      18.57       3.79       4.54
C      18.58       4.84       5.44
C      17.46       5.71       5.49
C      16.38       5.47       4.65
C      16.34       4.40       3.73
C      17.38       6.94       6.35
C      23.55       6.13      13.96
C      22.56       6.89      13.17
C      23.00       7.53      12.00
C      22.14       8.21      11.16
C      20.76       8.25      11.48
C      20.32       7.67      12.66
C      21.18       6.99      13.54
C      19.72       8.81      10.56
C      23.64      13.96       2.76
C      22.63      13.36       3.65
C      22.46      11.96       3.60
C      21.53      11.30       4.40
C      20.73      12.06       5.29
C      20.89      13.44       5.34
C      21.82      14.13       4.54
C      19.71      11.46       6.20
C      10.70       6.02      13.87
C      11.72       6.64      13.01
C      11.84       6.16      11.69
C      12.76       6.67      10.79
C      13.61       7.72      11.21
C      13.50       8.21      12.51
C      12.58       7.70      13.44
C      14.64       8.37      10.33
C      10.76      13.85       2.63
C      11.79      13.17       3.45
C      11.36      12.20       4.37
C      12.24      11.55       5.22
C      13.61      11.86       5.16
C      14.05      12.80       4.23
C      13.18      13.48       3.35
C      14.65      11.26       6.06
C      16.66      17.62      13.68
C      16.73      16.47      12.76
C      17.34      15.29      13.24
C      17.46      14.16      12.46
C      16.95      14.17      11.14
C      16.37      15.33      10.65
C      16.24      16.50      11.42
C      16.96      12.96      10.26
N      15.23       4.22       2.96
N      20.68       6.46      14.69
N      21.90      15.49       4.64
N      12.55       8.21      14.70
N      13.68      14.35       2.43
N      15.63      17.60      10.88
Cl      19.94       4.99       6.50
Cl      22.80       9.04       9.79
Cl      21.36       9.59       4.20
Cl      12.87       5.92       9.23
Cl      11.59      10.44       6.39
Cl      18.32      12.80      13.12
O      26.19      15.42       0.65
O      18.69       1.75       2.68
O      16.53       2.11       2.06
O      16.20       7.30       6.71
O      18.47       7.53       6.62
O      24.69       5.91      13.42
O      23.21       5.72      15.14
O      18.74       9.42      11.10
O      19.87       8.56       9.32
O      24.38      13.17       2.08
O      23.71      15.25       2.72
O      18.66      12.17       6.41
O      19.97      10.33       6.71
O       9.88       5.21      13.33
O      10.69       6.34      15.13
O      15.66       8.84      10.94
O      14.42       8.44       9.08
O       9.60      13.30       2.57
O      11.08      14.96       2.05
O      15.53      12.08       6.49
O      14.58      10.02       6.31
O      16.97      17.42      14.90
O      16.30      18.77      13.19
O      17.19      13.15       9.02
O      16.69      11.85      10.81
O      17.16       9.96       8.28
