171

Zn       4.28       6.43       4.82
Zn      -0.74       2.55       7.94
Zn       1.77       4.49       6.38
H       0.73       6.94       2.11
H       2.80       2.04      10.65
H      -0.14       6.64       3.61
H       3.68       2.35       9.15
H       0.59       4.52       1.52
H       2.95       4.46      11.24
H       0.14       4.13       3.19
H       3.40       4.86       9.57
H      -1.50       3.65       4.59
H       5.03       5.34       8.17
H      -3.62       3.45       5.82
H       7.16       5.54       6.94
H       7.41       4.42       4.91
H      -3.88       4.57       7.85
H       7.39       5.57       2.74
H      -3.86       3.42      10.02
H      -4.50       2.30      12.48
H       8.04       6.68       0.28
H       6.20       2.48       4.86
H      -2.67       6.51       7.89
H       4.58       1.76       4.98
H      -1.05       7.22       7.78
H       6.48       2.26       7.34
H      -2.94       6.72       5.42
H       4.78       1.80       7.51
H      -1.25       7.18       5.25
H       8.54       1.62       6.47
H      -5.01       7.37       6.29
H      -2.59       0.35       5.77
H       6.13       8.64       6.99
H       5.19      10.64       5.21
H      -1.66      -1.65       7.55
H       3.01       9.43       5.31
H       0.53      -0.45       7.45
H       3.18       0.28       7.05
H       0.36       8.70       5.71
H       4.02       8.22       8.94
H      -0.48       0.77       3.82
H       2.91       9.24       8.03
H       0.63      -0.25       4.73
H       0.94       7.96       8.91
H       2.59       1.03       3.85
H       2.00       6.87       9.79
H       1.53       2.12       2.97
H      -0.14       9.91       8.86
H       3.68      -0.93       3.90
H       3.85      -0.74       9.51
H      -0.32       9.73       3.24
H       4.37       0.43      11.65
H      -0.83       8.55       1.11
H      10.53       3.29       0.41
H      -6.99       5.69      12.35
H       4.04       7.03      11.21
H      -0.50       1.95       1.55
H       4.42       8.91       3.16
H      -0.88       0.07       9.60
H      -4.73       9.78       2.46
H       8.26      -0.80      10.30
H      -5.09       8.94       4.00
H       8.62       0.05       8.75
H       8.01       8.05       2.47
H      -4.47       0.94      10.29
H       6.88      11.15       1.80
H      -3.35      -2.17      10.96
H       5.38      10.40       1.23
H      -1.84      -1.42      11.53
H       5.41      11.26       2.80
H      -1.88      -2.28       9.96
C       1.87       6.03       3.69
C       1.67       2.96       9.07
C       0.59       6.21       2.91
C       2.95       2.77       9.85
C       0.02       4.88       2.40
C       3.51       4.11      10.36
C      -2.43       4.73       2.94
C       5.96       4.26       9.82
C      -2.41       4.06       4.16
C       5.94       4.93       8.60
C      -3.61       3.95       4.85
C       7.15       5.03       7.90
C       8.34       4.50       4.35
C      -4.81       4.48       8.41
C       8.33       5.15       3.12
C      -4.79       3.83       9.64
C       9.52       5.28       2.40
C      -5.99       3.71      10.36
C       9.87       5.89       1.14
C      -6.33       3.10      11.62
C      -1.87       5.69       0.96
C       5.41       3.29      11.80
C      -5.58       2.44      12.60
C       9.11       6.55       0.16
C       4.65       3.75       5.65
C      -1.12       5.23       7.11
C       5.31       2.40       5.50
C      -1.78       6.59       7.26
C       5.65       1.74       6.84
C      -2.12       7.24       5.92
C       7.25      -0.12       6.29
C      -3.71       9.11       6.46
C       8.47       0.56       6.22
C      -4.93       8.43       6.54
C       9.59      -0.16       5.82
C      -6.06       9.15       6.94
C       9.50      -1.53       5.49
C      -5.97      10.51       7.27
C       3.07      10.49       5.56
C       0.47      -1.51       7.20
C       7.14      -1.51       5.97
C      -3.61      10.49       6.79
C       0.54      10.83       6.14
C       3.00      -1.84       6.62
C       5.07      -0.68       6.55
C      -1.54       9.66       6.21
C       3.69      -0.64       6.77
C      -0.16       9.62       5.99
C       3.10       7.27       7.26
C       0.44       1.72       5.50
C       3.04       8.22       8.44
C       0.50       0.76       4.32
C       1.91       7.90       9.42
C       1.62       1.09       3.34
C       6.29      -2.78      10.67
C      -2.76      11.76       2.09
C       5.30      -2.29       9.80
C      -1.77      11.28       2.96
C       4.62      -1.14      10.18
C      -1.09      10.12       2.58
C       4.91      -0.47      11.38
C      -1.38       9.46       1.37
C       5.91      -0.95      12.24
C      -2.37       9.93       0.52
C       6.61      -2.10      11.88
C      -3.08      11.08       0.88
C       7.71      -2.82      12.49
C      -4.18      11.80       0.27
C       2.78       8.77      11.62
C       0.76       0.21       1.14
C       3.82       7.87      11.87
C      -0.28       1.11       0.88
C       5.46       8.58       3.30
C      -1.92       0.41       9.46
C       7.80       9.02       2.94
C      -4.27      -0.03       9.82
C       5.99      10.62       2.12
C      -2.45      -1.63      10.64
N      -1.38       4.97       2.05
N       4.92       4.01      10.71
N       6.00       0.35       6.67
N      -2.47       8.64       6.09
N       1.89       8.81      10.55
N       1.64       0.18       2.21
N       6.39       9.38       2.79
N      -2.85      -0.39       9.97
O       2.73       6.98       3.67
O       0.81       2.00       9.09
O       2.04       4.96       4.34
O       1.50       4.03       8.42
O       5.07       4.66       4.84
O      -1.53       4.32       7.91
O       3.75       3.89       6.52
O      -0.21       5.10       6.24
O       4.17       7.34       6.55
O      -0.63       1.64       6.20
O       2.12       6.50       7.04
O       1.42       2.48       5.72
O       5.73       7.49       3.89
O      -2.20       1.49       8.87
