172

Zn      11.31       1.71      11.24
Zn       6.05       5.57       0.20
Zn       9.73      12.84      11.63
Zn      14.99       8.98      22.68
H      10.65       4.90      10.25
H       5.39       2.37       1.18
H      10.39       9.65      12.62
H      15.65      12.18      21.69
H      16.82      11.63      13.84
H      11.55      10.19      20.46
H       4.22       2.92       9.03
H       9.49       4.36       2.41
H      13.51      12.63      17.09
H       8.24       9.20      17.22
H       7.53       1.92       5.79
H      12.80       5.35       5.65
H       6.73       4.41      12.08
H       6.73       5.71      22.23
H      14.31      10.14      10.80
H      14.31       8.84       0.64
H      16.37       8.63      17.77
H      11.11      13.19      16.53
H       4.67       5.92       5.10
H       9.93       1.36       6.34
H      16.64       9.17      11.86
H      11.37      12.65      22.45
H       4.40       5.38      11.01
H       9.67       1.90       0.42
H      10.07       7.10       9.69
H      10.08      11.88       1.75
H      10.97       7.45      13.19
H      10.96       2.67      21.13
H      16.25       9.70      15.52
H      10.99      12.12      18.78
H       4.79       4.85       7.35
H      10.05       2.43       4.09
H       9.69       9.55       9.52
H       9.69       9.43       1.91
H      11.35       5.00      13.35
H      11.35       5.12      20.96
H      13.63      11.53      19.32
H       8.36      10.29      14.98
H       7.41       3.02       3.55
H      12.68       4.26       7.89
H       6.49       6.73      12.07
H       6.48       3.38      22.23
H      14.55       7.82      10.80
H      14.56      11.17       0.64
H       6.94       1.99      12.53
H      17.46       8.13      21.78
H      14.10      12.56      10.34
H       3.58       6.42       1.09
H      12.66      12.70      14.64
H      17.92       9.13      19.67
H       8.38       1.85       8.23
H       3.12       5.42       3.20
C      15.14       9.40      20.04
C       9.87      12.42      14.26
C       5.90       5.15       2.83
C      11.17       2.12       8.61
C       7.70      11.00      10.68
C       7.71       7.98       0.75
C      13.34       3.55      12.19
C      13.33       6.57      22.12
C      15.01      10.02      18.69
C       9.75      11.81      15.62
C       6.03       4.53       4.18
C      11.29       2.74       7.25
C       9.74       4.57      10.73
C       4.48       2.70       0.71
C      11.30       9.98      12.15
C      16.56      11.84      22.16
C      14.79      11.88      14.83
C       9.52       9.95      19.47
C       6.25       2.67       8.04
C      11.52       4.60       3.40
C      15.78      11.97      13.83
C      10.52       9.86      20.47
C       5.26       2.58       9.04
C      10.52       4.69       2.40
C      14.87      11.24      16.15
C       9.60      10.58      18.16
C       6.17       3.31       6.72
C      11.44       3.97       4.71
C      14.13      11.74      17.23
C       8.86      10.08      17.07
C       6.91       2.81       5.64
C      12.18       4.47       5.80
C       7.74       4.36      11.68
C       7.73       5.76      22.63
C      13.30      10.19      11.20
C      13.31       8.79       0.24
C      15.75       9.51      17.61
C      10.49      12.31      16.70
C       5.29       5.04       5.26
C      10.55       2.24       6.17
C       8.57       5.30      11.07
C       3.31       1.97       0.36
C      12.47       9.25      11.80
C      17.73      12.58      22.51
C       6.97       8.70      11.37
C       6.97      10.28       0.06
C      14.07       5.85      11.50
C      14.07       4.27      22.81
C       9.20       7.55      10.16
C       9.20      11.43       1.27
C      11.84       7.00      12.71
C      11.84       3.11      21.60
C      15.69      10.11      16.36
C      10.42      11.71      17.95
C       5.35       4.44       6.51
C      10.62       2.84       4.92
C       8.99       8.92      10.06
C       8.99      10.06       1.37
C      12.05       5.63      12.81
C      12.05       4.49      21.50
C       7.88       9.51      10.67
C       7.88       9.47       0.76
C      13.16       5.04      12.20
C      13.16       5.08      22.11
C       8.31       6.73      10.89
C       3.05       0.54       0.54
C      12.73       7.82      11.98
C      17.99      14.01      22.33
C      14.20      11.14      18.48
C       8.93      10.69      15.82
C       6.84       3.41       4.39
C      12.11       3.86       7.05
C       7.19       7.34      11.49
C      12.45      14.49      22.82
C      13.85       7.21      11.38
C       8.59       0.06       0.06
C       7.93       1.88      12.07
C       7.93       8.24      22.24
C      13.11      12.67      10.80
C      13.11       6.31       0.63
C      13.68      12.53      14.30
C       8.41       9.29      20.01
C       7.36       2.02       8.58
C      12.63       5.26       2.86
N       8.41       3.18      11.68
N       8.41       6.94      22.63
N      12.63      11.37      11.19
N      12.63       7.61       0.24
N       9.63       3.29      11.09
N       4.37       3.98       0.35
N      11.41      11.26      11.78
N      16.67      10.57      22.52
N      15.32      12.62      12.76
N      10.06       9.20      21.54
N       5.72       1.93      10.11
N      10.98       5.35       1.33
N      14.04      12.97      13.06
N       8.78       8.86      21.25
N       7.00       1.58       9.81
N      12.26       5.69       1.63
O      14.34       9.84      20.96
O       9.08      11.98      13.34
O       6.70       4.71       1.91
O      11.96       2.57       9.53
O       8.70      11.72      10.32
O       8.70       7.26       1.11
O      12.34       2.83      12.55
O      12.34       7.29      21.76
O      16.02       8.52      20.26
O      10.76      13.30      14.05
O       5.02       6.03       2.61
O      10.28       1.25       8.82
O      17.11      11.45      11.09
O       6.59       7.53       0.35
O       3.93       3.10      11.78
O      14.45       7.02      22.52
