176

Al       1.42      13.53      16.20
Al       5.27       4.51       5.42
Al       4.76      13.53      16.23
Al       1.93       4.51       5.39
H       2.42      10.65       2.47
H       4.27       7.39      19.15
H       5.77      17.58       8.34
H       0.92       0.47      13.28
H       3.73       8.11       2.72
H       5.22       8.32       4.68
H       4.28       8.87       6.92
H       1.83       9.27       7.16
H       0.35       9.09       5.19
H       6.35       8.95      16.42
H       4.86       8.77      14.45
H       2.41       9.17      14.69
H       1.48       9.72      16.94
H       2.96       9.93      18.90
H       0.38       0.91       8.09
H       1.87       0.70       6.13
H       0.94       0.15       3.88
H       5.18      18.96       3.64
H       3.69      -0.07       5.62
H       3.00      18.12      16.00
H       1.52      -0.91      17.97
H       5.76      17.89      17.73
H       4.82      17.34      15.48
H       6.31      17.13      13.52
H       1.04      13.88       1.65
H       2.47      15.91       1.80
H       4.83      15.83       0.99
H       5.75      13.71       0.07
H       4.31      10.52      21.54
H       2.38       7.53       0.08
H       0.94       4.34      21.54
H       1.86       2.21      20.63
H       4.22       2.14      19.81
H       5.65       4.16      19.96
H       4.39      14.35       9.16
H       5.82      12.33       9.00
H       1.48      12.40       9.82
H       2.41      14.52      10.74
H       0.97      16.55      10.88
H       5.73       1.50      10.73
H       4.29       3.52      10.88
H       5.21       5.64      11.79
H       0.87       5.72      12.61
H       2.31       3.69      12.46
H       3.08      11.78      16.38
H       3.61       6.26       5.24
H       6.43      15.28      16.05
H       0.26       2.76       5.57
C       3.09      15.06      18.09
C       3.61       2.98       3.52
C       6.43      12.00      14.33
C       0.26       6.04       7.28
C       3.09      15.21      14.49
C       3.60       2.83       7.12
C       6.44      11.85      17.93
C       0.25       6.19       3.69
C       6.02       7.05       1.54
C       0.67      10.99      20.08
C       2.67       1.97       9.27
C       4.02      16.07      12.35
C       0.21       7.23       2.61
C       6.49      10.81      19.00
C       3.55       1.79       8.20
C       3.14      16.25      13.42
C       1.02       8.37       2.66
C       5.67       9.67      18.96
C       4.37       0.65       8.15
C       2.32      17.40      13.47
C       0.94       9.32       1.61
C       5.75       8.72      20.00
C       4.29      -0.30       9.20
C       2.41      18.35      12.42
C       0.03       9.12       0.52
C       6.66       8.92      21.09
C       3.38      -0.10      10.29
C       3.31      18.14      11.33
C       5.89       7.95       0.47
C       0.80      10.09      21.15
C       2.55       1.07      10.34
C       4.15      16.97      11.28
C       1.75      10.51       1.63
C       4.95       7.54      19.99
C       5.09      17.73       9.18
C       1.60       0.32      12.44
C       1.70      11.46       0.64
C       4.99       6.59      20.97
C       5.05      16.78      10.17
C       1.65       1.27      11.45
C       0.25       6.94       8.42
C       6.45      11.11      13.20
C       3.59       2.09       2.39
C       3.10      15.96      19.22
C       0.16       7.73       9.34
C       6.53      10.31      12.27
C       3.50       1.29       1.46
C       3.19      16.75      20.15
C       0.05       8.61      10.35
C       6.64       9.43      11.27
C       3.40       0.41       0.46
C       3.29      17.63      21.16
C       1.93       8.58       3.82
C       3.32       8.40       3.68
C       4.15       8.51       4.79
C       3.63       8.82       6.05
C       2.26       9.04       6.19
C       1.42       8.92       5.08
C       4.76       9.46      17.80
C       5.28       9.12      16.54
C       4.44       9.01      15.43
C       3.07       9.22      15.56
C       2.54       9.53      16.82
C       3.38       9.65      17.93
C       5.28       0.44       6.99
C       6.66       0.63       7.12
C       0.81       0.51       6.01
C       0.28       0.20       4.75
C       5.60      -0.02       4.62
C       4.76       0.10       5.73
C       1.41      17.61      14.63
C       1.93      17.95      15.89
C       1.09      18.06      17.00
C       6.41      17.84      16.86
C       5.89      17.54      15.60
C       0.03      17.42      14.49
C       2.58      12.66       0.76
C       2.08      13.85       1.31
C       2.88      14.98       1.39
C       4.20      14.94       0.94
C       4.72      13.75       0.42
C       3.91      12.61       0.34
C       4.12       5.39      20.85
C       2.78       5.43      21.28
C       1.97       4.30      21.19
C       2.49       3.11      20.68
C       3.81       3.06      20.22
C       4.62       4.20      20.31
C       5.92      15.58      10.04
C       5.42      14.39       9.50
C       6.23      13.25       9.42
C       0.86      13.29       9.87
C       1.37      14.48      10.38
C       0.57      15.62      10.47
C       0.77       2.47      11.57
C       6.13       2.42      11.15
C       5.32       3.56      11.23
C       5.83       4.75      11.75
C       0.46       4.79      12.20
C       1.27       3.66      12.12
O       4.21      14.84      14.96
O       2.48       3.20       6.65
O       0.87      12.22      17.46
O       5.82       5.82       4.15
O       1.95      14.73      17.63
O       4.74       3.31       3.98
O       5.30      12.34      14.79
O       1.40       5.71       6.83
O       1.95      14.80      14.86
O       4.74       3.25       6.76
O       5.30      12.27      17.56
O       1.40       5.78       4.05
O       0.89      12.34      14.76
O       5.80       5.71       6.85
O       4.24      14.73      17.66
O       2.46       3.32       3.95
O       3.09      12.74      16.20
O       3.60       5.31       5.42
O       6.44      14.33      16.23
O       0.25       3.72       5.39
F       5.29       5.91       1.52
F       1.40      12.14      20.09
F       1.95       3.12       9.28
F       4.75      14.93      12.33
