162

Zn      18.06       5.50      13.29
Zn      18.02      14.08       0.58
Zn       7.46       1.02       0.58
Zn      10.64       0.92       0.70
Zn      27.14      10.75       9.65
Zn      10.61       9.75       7.04
Zn      27.18      12.48       7.00
Zn      25.63       9.61       7.08
H      20.60       7.11      10.70
H      22.46       7.94      15.09
H      22.33      10.78       4.63
H      23.87      15.90       2.21
H      12.19      14.76       5.39
H      12.61      10.33       2.57
H      15.60      10.98       2.45
H      28.17      16.16       9.06
H      25.09      15.81      14.08
H      26.65      15.19      14.68
H      22.36       8.01       9.15
H      11.57      10.29      13.37
H      12.83      11.14      12.44
H      25.87      14.49       2.54
H      26.41      15.96       3.40
H      26.64      14.35       4.14
H      14.96      16.56       4.15
H      13.54      16.82       3.17
H      13.36      16.64       4.93
H      14.91       3.04       1.65
H      16.63       2.56       1.48
H      16.15       4.24       1.23
H      14.61      10.02      13.84
H      13.29      11.69       0.52
H      15.02      11.96       0.20
H      14.39      10.30       0.34
H      23.84      13.44      13.23
H      23.97      14.75      12.02
H      24.41      13.07      11.58
H      15.00       4.77      11.39
H      13.35       4.41      10.84
H      14.50       5.14       9.73
H      11.86       5.30       9.65
H      13.34       9.18      14.77
H      11.10       6.75       9.00
H      12.71       6.26       8.44
H       7.00       6.24       4.74
H      12.16       7.09       3.52
H      12.10       5.09       2.00
H      12.29       4.01       3.42
H      20.61      11.79       3.13
C      20.56      14.32       2.08
C      14.23       7.16      12.35
C      13.71       6.51      11.20
C      15.39       6.69      13.15
C      12.68       7.12      10.44
C      12.21       8.42      10.77
C      12.66       8.98      11.96
C      12.54      10.18      12.88
C      13.66       9.47      13.76
C      10.28       4.89       3.24
C       9.11       4.20       2.93
C      25.43       8.12      12.62
C       7.91       4.72       3.50
C       7.93       5.86       4.32
C       9.13       6.54       4.63
C      27.27      18.43      13.12
C      10.29       6.01       4.08
C      11.81       6.16       3.99
C      11.77       4.89       3.03
C      22.74      14.38       3.35
C      21.60      13.69       2.95
C      21.49      12.37       3.42
C      24.10       8.09      12.09
C      22.45      11.80       4.26
C      23.59      12.52       4.66
C      23.70      13.82       4.17
C      24.59      15.07       4.19
C       9.13       2.99       2.06
C      23.46      15.72       3.22
C      14.25      12.63       2.97
C      14.50      14.00       2.99
C      13.74      14.79       3.90
C      12.78      14.15       4.70
C      23.03       7.85      13.01
C      12.53      12.77       4.68
C      13.30      12.03       3.79
C      13.49      10.65       3.15
C      14.59      11.35       2.23
C      26.76      16.03      12.63
C      15.53      14.56       2.06
C      27.31      17.24      12.22
C      27.84      17.25      10.90
C      27.76      16.11      10.07
C      27.18      14.91      10.50
C      21.75       7.45      12.46
C      26.69      14.91      11.81
C      25.88      14.09      12.82
C      26.04      15.36      13.78
C       9.10       7.74       5.51
C      27.10      13.71       9.63
C      11.34       9.22       9.87
C      20.62       6.93      13.30
C      24.61      11.94       5.59
C      11.49      12.16       5.54
C      24.75       8.96       9.76
C      21.56       7.45      11.09
C      23.29       8.02      14.40
C      24.55       8.27      14.90
C      25.66       8.22      13.99
C       6.63       4.11       3.32
C      12.54       5.95       5.23
C      24.68      15.68       5.51
C      25.97      14.96       3.52
C      22.78      16.91       3.67
C      13.91      16.27       4.05
C      13.96       9.55       3.96
C      22.56       7.90      10.21
C      15.83       3.20       1.07
C      14.31      11.32       0.73
C      28.51      18.40      10.36
C      24.43      13.82      12.38
C      26.50      12.87      13.32
C      26.99       8.24      14.50
C      26.52       7.81      11.75
C      14.18       5.14      10.78
C      12.06       6.33       9.32
C      23.82       8.24      10.69
C      13.63       8.36      12.73
N       5.53       3.71       3.26
N      13.14       5.72       6.20
N      24.77      16.14       6.58
N      13.16       1.99       4.03
N      14.38       8.64       4.56
N      29.11      19.26       9.85
N      26.95      11.89      13.76
N      28.07       8.23      14.95
N       9.14       7.43      11.04
O      18.01       5.38      15.26
O      25.60      12.71       5.85
O      11.65      10.93       5.85
O      20.77      15.55       1.79
O      24.66       8.69       8.52
O      10.52      12.91       5.89
O      25.50       9.85      10.29
O      10.55      10.07      10.42
O      24.41      10.76       6.03
O      10.23       8.25       5.81
O      27.34      13.86       8.39
O      27.51      19.56      12.61
O      16.34       6.06      12.57
O      26.96      18.18      14.34
O       8.01       2.48       1.76
O      16.42      13.73       1.66
O      20.83       6.76      14.55
O      15.44      15.78       1.73
O      19.53       6.66      12.69
O      10.28       2.57       1.70
O      19.58      13.60       1.71
O      15.37       7.02      14.39
O      27.18      10.65       7.68
O       7.95       8.16       5.86
O      26.80      12.62      10.22
O      11.49       9.05       8.61
