160

Zn       6.96       9.05      15.66
Zn       9.73       9.08      15.54
Zn       9.17       9.08      28.63
Zn       6.40       9.10      28.74
H       9.73       9.15      24.39
H       5.46       9.05      24.63
H       6.40       9.14      19.90
H      10.67       9.03      19.65
H      11.42       9.95      22.93
H      11.40       8.18      22.94
H      12.05       9.05      21.53
H       4.71       9.95      21.35
H       4.74       8.18      21.34
H       4.09       9.05      22.75
C       8.33       6.49      15.51
C       8.43       9.10      18.16
C       8.35      11.64      15.57
C       8.25       8.99      13.04
C       7.80       6.51      28.76
C       7.70       9.12      26.12
C       7.77      11.67      28.68
C       8.27       8.85       0.28
C      12.55       8.14      16.17
C      13.94       8.08      16.18
C      14.68       9.00      15.40
C      13.94       9.92      14.64
C      12.55       9.91      14.70
C      16.08       8.99      15.41
C       0.61       8.99      15.44
C       2.01       9.01      15.50
C       2.73       8.27      16.46
C       4.12       8.34      16.49
C       4.16       9.78      14.70
C       2.78       9.78      14.60
C       8.25       4.99      15.38
C       7.06       4.35      15.00
C       6.96       2.97      14.93
C       8.06       2.14      15.24
C       9.26       2.78      15.60
C       9.35       4.16      15.66
C       7.97       0.73      15.24
C       7.98      17.40      15.30
C       8.06      16.00      15.37
C       6.94      15.20      15.65
C       7.04      13.81      15.74
C       8.26      13.15      15.54
C       9.38      13.95      15.27
C       9.29      15.33      15.19
C       8.78       9.13      23.87
C       6.35       9.08      24.00
C       6.23       9.09      22.63
C       7.42       9.11      21.83
C       7.36       9.12      20.41
C       9.78       9.07      20.29
C       9.90       9.08      21.66
C       8.71       9.11      22.46
C       7.62       9.11      24.63
C       8.51       9.10      19.65
C       8.28       8.79       1.78
C       9.45       9.04       2.53
C       9.45       9.02       3.92
C       8.28       8.74       4.65
C       7.11       8.47       3.90
C       7.12       8.50       2.51
C       8.27       8.74       6.05
C       8.26       8.76       7.27
C       8.26       8.80       8.67
C       9.42       8.56       9.42
C       9.42       8.62      10.81
C       8.25       8.91      11.53
C       7.08       9.14      10.79
C       7.08       9.08       9.40
C       3.57       8.16      28.10
C       2.18       8.12      28.08
C       1.45       9.03      28.86
C       2.19       9.95      29.63
C       3.58       9.93      29.58
C       0.04       9.03      28.85
C      15.52       9.04      28.82
C      14.11       9.06      28.77
C      13.40       8.32      27.81
C      12.01       8.38      27.79
C      11.96       9.83      29.57
C      13.35       9.83      29.66
C       7.88       5.01      28.85
C       9.08       4.37      29.20
C       9.18       2.98      29.21
C       8.09       2.16      28.88
C       6.88       2.81      28.55
C       6.78       4.20      28.54
C       8.17       0.76      28.85
C       8.19      17.43      28.79
C       8.10      16.02      28.74
C       9.21      15.20      28.46
C       9.09      13.82      28.41
C       7.87      13.17      28.66
C       6.76      13.99      28.92
C       6.87      15.37      28.96
C      11.26       9.07      22.30
C       4.87       9.07      21.99
N      11.87       9.03      15.45
N       4.82       9.08      15.62
N       4.25       9.05      28.83
N      11.31       9.12      28.65
O       7.29       7.05      15.96
O       9.41       7.05      15.16
O       9.50       8.80      17.53
O       7.30       9.38      17.63
O       9.46      11.12      15.89
O       7.29      11.02      15.25
O       7.20       8.63      13.64
O       9.33       9.40      13.57
O       8.85       7.08      28.32
O       6.72       7.07      29.12
O       6.64       8.82      26.76
O       8.83       9.42      26.65
O       6.65      11.14      28.39
O       8.83      11.05      29.03
O       8.94       8.67      30.65
O       6.80       9.42      30.72
F      11.86       7.28      16.91
F      11.85      10.79      13.99
F      14.57      10.82      13.88
F      14.57       7.17      16.93
F       2.07       7.52      17.36
F       2.17      10.51      13.65
F       4.87      10.52      13.86
F       4.79       7.66      17.41
F       5.97       5.07      14.66
F      10.53       4.69      16.05
F      10.34       2.03      15.91
F       5.79       2.40      14.56
F       5.74      15.78      15.85
F      10.39      16.06      14.93
F      10.60      13.41      15.05
F       5.91      13.14      16.05
F      10.61       9.36       1.92
F       5.96       8.20       1.89
F       5.97       8.18       4.55
F      10.59       9.29       4.58
F      10.57       8.27       8.78
F       5.94       9.33       8.73
F       5.92       9.45      11.39
F      10.58       8.34      11.44
F       4.26       7.30      27.36
F       4.27      10.80      30.29
F       1.56      10.86      30.39
F       1.55       7.21      27.33
F      14.05       7.56      26.91
F      13.96      10.57      30.60
F      11.25      10.57      30.41
F      11.33       7.69      26.87
F      10.17       5.07      29.55
F       5.60       4.73      28.17
F       5.80       2.07      28.23
F      10.36       2.41      29.56
F      10.41      15.77      28.22
F       5.77      16.11      29.23
F       5.54      13.46      29.18
F      10.21      13.12      28.10
