74

Al       0.87       6.84       8.35
Al       4.20       6.77       8.34
Al       4.52       0.44      16.67
Al       1.17       0.39      16.69
H       0.49       5.77      12.89
H       1.75       3.22      13.05
H       4.94       1.46      12.18
H       3.67       4.02      12.01
H       1.24       4.35       4.99
H       4.86       3.92       5.17
H       1.21       2.82       3.05
H       1.03      10.96      13.80
H       3.74       9.63      11.48
H       0.74      10.80       3.00
H       0.61       9.60       5.12
H       3.67       9.35       4.94
H       4.98       4.74      14.44
H       4.81       2.76       3.34
H       0.68       9.64      11.80
H       0.43       2.50      10.62
H       2.47       5.19       8.97
H       5.82       8.48       8.84
H       2.81       2.08      16.21
H       6.21      12.12      16.63
C       2.52       8.46      10.14
C       2.58       8.33       6.49
C       5.92       5.22       6.55
C       5.85       5.25      10.22
C       6.66       4.81      12.75
C       5.45       4.25      13.57
C       6.17       2.85      13.64
C       0.70       3.40      12.81
C       6.64       2.98      11.49
C       5.42       2.43      12.31
C       4.72       3.83      12.25
C       5.92       4.39      11.42
C       0.27       3.94       4.68
C       5.86       4.30       5.40
C       0.25       3.07       3.52
C       5.81       2.55       2.95
C       1.89      10.84      13.14
C       2.95      11.59      13.52
C       1.71       9.94      12.02
C       2.70       9.40      11.27
C       1.67      10.68       3.57
C       2.70      11.40       3.05
C       1.61       9.82       4.73
C       2.66       9.22       5.31
C       2.58      12.15       1.76
C       2.94      12.39      14.79
C       6.22       2.00      14.85
C       5.82       1.69       1.76
Br       4.58      11.76      12.54
Br       4.42      11.56       3.85
O       3.70       7.83       6.85
O       1.36       8.05       9.82
O       0.30       5.52       9.66
O       1.46       8.13       7.06
O       0.37       5.71       6.89
O       3.62       8.15       9.57
O       2.52       5.99       8.42
O       4.80       5.44       7.13
O       4.70       5.66       9.85
O       5.86       7.63       8.37
O       1.82      12.55      15.37
O       3.66      12.39       1.15
O       4.68       1.30       1.35
O       4.07      12.81      15.19
O       5.09       1.76      15.41
O       1.41      12.47       1.37
O       2.83       1.22      16.66
O       0.68       1.56      15.23
O       0.27       1.41       1.21
O       6.24      13.09      16.66
