58

Zn      30.16      17.47      12.15
Zn      23.72       6.44      12.20
Zn      17.41      17.57      12.20
Zn      23.75      13.83       1.70
Zn      17.44      10.09       6.92
Zn      15.74       7.35       6.95
Zn      15.77       9.19       4.32
Zn      14.22      10.19       6.96
C      21.21       5.97      10.72
C      20.19       6.54       9.87
C      19.34       7.04       9.16
C      18.33       7.66       8.33
C      15.90      15.50      10.75
C      15.94      14.32       9.92
C      15.95      13.33       9.21
C      15.92      12.15       8.37
C      21.24      12.28       1.76
C      20.22      11.67       2.59
C      19.37      11.17       3.30
C      18.35      10.60       4.16
C      10.32       6.14      10.78
C      11.33       6.75       9.93
C      12.18       7.25       9.23
C      13.20       7.82       8.38
C      15.71       2.90       1.84
C      15.69       4.07       2.68
C      15.68       5.06       3.39
C      15.69       6.25       4.22
C      10.38      12.45       1.84
C      11.40      11.87       2.69
C      12.25      11.36       3.39
C      13.26      10.75       4.23
O      23.77       4.57      12.84
O      22.13       6.76      11.10
O      21.08       4.73      11.01
O      17.32       6.94       8.05
O      18.56       8.86       7.97
O      17.03      15.99      11.10
O      14.74      15.92      11.06
O      14.76      11.73       8.05
O      17.04      11.66       8.04
O      22.19      12.86       2.39
O      21.08      12.18       0.50
O      17.37      10.05       3.56
O      18.55      10.71       5.41
O      10.53       4.92      11.10
O       9.34       6.87      11.11
O      13.06       9.04       8.07
O      14.14       7.03       8.05
O      15.72       3.11       0.58
O      15.72       1.78       2.44
O      15.71       6.05       5.48
O      15.70       7.36       3.61
O      10.59      12.38       0.59
O       9.39      12.97       2.44
O      13.11      10.88       5.48
O      14.20      10.14       3.61
O      15.79       9.21       6.29
