186

Zr       2.60      19.28       1.83
Zr      17.23      19.54       1.81
Zr       2.77       8.78      17.73
Zr      17.39       8.95      17.65
Zr       1.73      26.22      17.78
Zr      18.27       2.05       1.73
H      19.17      20.28       3.80
H      16.98      26.90      18.24
H      19.15      11.04      17.73
H       4.70      26.70      18.09
H      14.70      20.11       2.20
H      14.98      10.00      17.97
H      17.29       9.87      15.21
H       3.54      10.72      15.90
H       5.35       9.18      18.00
H       5.23      18.34       2.06
H       2.66      17.40       3.64
H      16.55      18.58       4.35
H       3.09       9.39      15.17
H       5.08      19.85       2.53
H      16.85      17.41       3.32
H      14.73       8.95      16.80
H       4.63      24.33       9.63
H       8.45      25.08      11.46
H       8.26      23.45       7.48
H      16.26      24.45       9.80
H      12.69      25.36      12.03
H      12.40      23.68       8.07
H       3.74      10.04       0.32
H       7.55      12.02       0.41
H       7.35       7.71       0.39
H      15.35      10.26       0.47
H      11.79      12.67       0.37
H      11.49       8.38       0.44
H       9.66      11.74       0.32
H       9.44       8.68       0.47
H      10.33      23.85       8.34
H      10.58      24.94      11.21
H      14.61       7.65      14.38
H      18.12      24.67      14.06
H      16.80      23.84      12.11
H      13.25       6.81      12.47
H      14.73      21.02       5.23
H      16.73       3.73       5.46
H      15.66       4.59       7.55
H      13.64      21.86       7.31
H       3.11      24.60      13.91
H       5.06       7.36      14.21
H       6.24       6.49      12.19
H       4.27      23.74      11.88
H       1.97       3.72       5.31
H       5.53      20.78       4.99
H       6.82      21.59       6.96
H       3.23       4.54       7.30
H      14.74      12.66      17.90
H      16.71       6.13       1.92
H      15.65       8.39       1.89
H      13.66      14.89      17.88
H      18.20      22.13      17.83
H      14.63      15.93       1.90
H      13.24      13.86       1.87
H      16.85      20.03      17.83
H       1.92       6.03       1.76
H       5.57      12.31      17.72
H       6.87      14.43      17.72
H       3.20       8.17       1.75
H       3.23      22.09      17.72
H       5.05      15.55       1.89
H       6.21      13.35       1.86
H       4.36      19.86      17.71
C       2.93      16.32       0.41
C      16.92      22.01       4.00
C      16.85      16.44       0.47
C       3.37      21.92       3.84
C       2.44       3.79       0.32
C      17.70      26.93      15.50
C      15.98       3.95       0.49
C       3.78      26.79      15.38
C       6.36      23.82       8.43
C       5.72      24.30       9.58
C       6.48      24.77      10.67
C       7.87      24.74      10.60
C       8.54      24.26       9.46
C       7.76      23.80       8.38
C      14.39      24.00       8.81
C      15.17      24.48       9.88
C      14.57      24.98      11.04
C      13.17      25.00      11.12
C      12.36      24.52      10.07
C      12.99      24.03       8.92
C       5.46       8.73       0.34
C       4.83       9.99       0.34
C       5.58      11.17       0.37
C       6.98      11.09       0.40
C       7.64       9.85       0.39
C       6.86       8.69       0.36
C      13.48       9.17       0.44
C      14.26      10.34       0.45
C      13.67      11.61       0.43
C      12.27      11.69       0.41
C      11.46      10.54       0.40
C      12.09       9.29       0.42
C      10.01      10.70       0.38
C       9.09       9.71       0.42
C       9.99      24.22       9.32
C      10.91      24.57      10.23
C      14.87       6.72      13.88
C      16.91      26.43      14.34
C      17.26      25.23      13.69
C      16.52      24.77      12.61
C      15.39      25.47      12.16
C      14.11       6.24      12.82
C      15.12      21.90       5.75
C      16.26      22.53       5.23
C      15.86       3.23       5.88
C      15.26       3.70       7.05
C      15.03      23.50       7.58
C      14.51      22.38       6.90
C       3.99      25.11      13.51
C       4.46      26.26      14.16
C       4.69       6.48      13.68
C       5.36       5.98      12.56
C       5.79      25.27      11.88
C       4.64      24.63      12.38
C       2.83       3.17       5.68
C       4.14      22.42       5.02
C       5.25      21.71       5.49
C       5.96      22.16       6.59
C       5.58      23.34       7.27
C       3.53       3.62       6.80
C      15.12      13.46      18.53
C      15.32       5.29       0.51
C      15.84       6.33       1.29
C      15.25       7.59       1.27
C      14.12       7.84       0.47
C      14.52      14.71      18.52
C      17.33      22.03      18.47
C      16.05      15.18       0.47
C      14.91      15.08       1.27
C      14.13      13.93       1.24
C      14.49      12.83       0.44
C      16.57      20.86      18.47
C       2.80       6.15       1.12
C       3.21       5.07       0.32
C       5.27      13.14      18.34
C       5.99      14.33      18.35
C       4.67       7.48       0.32
C       3.51       7.34       1.11
C       4.08      21.89      18.38
C       3.61      14.99       0.39
C       4.71      14.75       1.22
C       5.36      13.52       1.21
C       4.90      12.49       0.37
C       4.71      20.65      18.38
O       3.28      17.14       1.32
O       2.98      24.46      18.33
O      16.54      20.86       3.57
O      16.90       2.31       3.46
O      16.73      17.22       1.48
O      18.49      24.60      18.27
O       3.75      20.83       3.29
O       1.44       2.19       3.48
O       2.64      18.37       3.63
O       4.99      19.24       1.76
O      17.24      18.20       3.77
O      15.21      19.43       1.73
O      19.01      18.66       0.98
O      19.10      20.36       2.84
O       3.64      10.87      18.24
O       1.56       3.65       1.23
O      16.53       7.69      15.92
O      18.56      26.13      16.01
O      16.43      10.98      18.55
O      17.01       3.80       1.24
O       3.08       7.58      15.70
O       3.05      25.97      16.03
O       2.79      10.11      15.77
O       4.77       8.53      17.57
O      17.38      10.24      16.10
O      15.01       9.04      17.73
O       1.01      10.18      18.18
O       0.89       7.81      17.33
O       1.53       0.80       0.93
O      17.85      27.27      18.43
O       3.86      27.08      18.40
O      16.72       0.94       0.96
