184

Zn       8.14       5.75       0.05
Zn       5.81       8.21      19.11
Zn       8.17      10.60      19.02
Zn      10.52       8.15       0.05
Zn      16.17      13.93       9.53
Zn      13.82       0.06       9.70
Zn      16.18       2.47       9.64
Zn       2.32       0.05       9.56
H       2.04      11.54       2.52
H       0.68       3.29      15.32
H       6.10      12.90      12.05
H      15.58      12.69      14.90
H      10.08      13.11       6.96
H       0.65      13.01       3.88
H       6.08       3.45       7.00
H      15.61       3.28       4.01
H       8.66      11.63       5.59
H      14.23       4.74       2.65
H       7.50       4.91       5.67
H       2.07       4.75      16.69
H       8.64       5.05      13.46
H      14.62      11.92      17.06
H       7.49      11.43      13.40
H      10.02       3.52      12.12
C       5.73       4.17      18.35
C      14.06       0.59       6.74
C       2.45       4.09       8.71
C       2.15      15.70       6.63
C      13.70       4.09      10.48
C      14.37      15.88      12.64
C       2.47      12.30      10.35
C       2.17       0.66      12.52
C       7.54      10.25      16.06
C      12.16      10.65      18.05
C       8.70       6.15      16.21
C       5.98       8.76      16.15
C       4.22       5.71      18.21
C       7.56       6.10       3.00
C      12.11       5.68       1.07
C       8.71      10.41       2.88
C       4.17      10.60       0.94
C      15.62       2.10       6.68
C       3.93       2.52       8.56
C       0.60      14.20       6.57
C      12.16      13.93       8.72
C      15.81      14.27      12.54
C      10.59      12.11      17.89
C       3.95      13.86      10.51
C       0.66       2.21      12.59
C      12.21       2.54      10.64
C       4.40       4.34      17.93
C       6.52       9.71      15.26
C      11.93      11.93      17.52
C       9.70       6.68      15.38
C       4.34      11.97       1.23
C       6.55       6.66       3.80
C      11.94       4.31       1.34
C      10.28       7.63      16.24
C       9.68       9.88       3.75
C      12.32      12.59       8.33
C      14.62       1.54       5.86
C       3.78       3.89       8.28
C       1.63      14.72       5.77
C      12.36       3.92      10.88
C      14.97      14.91      13.47
C       3.80      12.48      10.77
C       1.67       1.64      13.40
C       2.39      12.56       2.67
C       5.66      12.15       0.78
C       9.67      11.32       5.83
C      13.89       3.71       2.77
C       6.48       5.24       5.89
C       2.43       3.73      16.53
C       9.68       5.32      13.25
C      14.09      12.67      16.46
C       6.48      11.11      13.17
C      10.38       4.54      12.26
C       1.71       2.99      15.52
C       5.76      11.87      12.17
C       6.03       7.62       2.92
C      14.81      13.30      15.38
C      10.38      12.07       6.84
C       1.68      13.32       3.68
C       5.75       4.48       6.87
C      14.60       2.94       3.77
C       3.49      12.89       1.96
C      10.22      10.41       4.99
C      12.80       3.38       2.04
C       5.98       6.17       5.04
C       3.54       3.41      17.23
C      10.61       4.13       0.91
C      10.24       6.18      14.13
C      12.76      12.75      16.67
C       5.96      10.19      14.01
C      11.49       4.85      11.56
C       2.24       2.10      14.64
C       4.66      11.55      11.45
C      14.56      14.50      14.80
C      11.44      11.70       7.60
C       2.20      14.22       4.54
C       4.65       4.81       7.59
C      10.22       8.86       2.95
C      14.08       2.02       4.60
C      13.67      12.38       8.68
N       6.28       5.29      18.81
N      14.65       0.60       7.94
N       1.89       2.97       9.17
N       1.52      15.74       7.81
N      14.26       2.97      10.05
N      14.80      15.80      11.38
N       1.90      13.42       9.90
N       1.55       0.65      11.34
N       7.60       9.71      17.27
N      11.10      10.13      18.65
N       8.70       6.70      17.43
N       6.60       8.75      17.33
N       5.31       6.28      18.73
N       7.62       6.66       1.78
N      11.02       6.25       0.54
N       8.68       9.79       1.70
N       5.24      10.04       0.39
N      15.64       1.56       7.90
N       2.84       1.96       9.08
N       0.52      14.79       7.77
N      13.27      14.46       9.24
N      15.72      14.78      11.32
N      10.08      11.07      18.55
N       2.86      14.42      10.01
N       0.59       1.64      11.39
N      13.30       1.97      10.14
N       9.71       7.65      17.45
N       6.20      11.04       0.29
N       6.64       7.63       1.74
N      10.06       5.25       0.45
N       9.65       8.80       1.74
N      14.24      13.46       9.20
F       6.48       3.06      18.31
F      13.07      16.03       6.50
F       1.72       5.20       8.67
F       3.16       0.24       6.41
F      14.44       5.21      10.51
F      13.43       0.50      12.97
F       1.73      11.18      10.37
F       3.18      16.07      12.75
F       8.39      11.23      15.72
F      13.29       9.93      17.99
F       7.84       5.17      15.92
F       4.96       7.92      15.93
F       3.12       6.45      18.02
F       8.40       5.10       3.31
F      13.20       6.44       1.27
F       7.88      11.44       3.11
F       3.07       9.85       1.16
F       0.28       3.08       6.37
F       5.02       1.76       8.36
F      15.95      13.20       6.27
F      11.06      14.68       8.62
F       0.44      13.24      12.78
F       9.80      13.17      17.65
F       5.04      14.61      10.72
F      16.04       3.22      12.91
F      11.12       1.79      10.84
F       3.97      14.17       1.92
F      11.51      10.01       5.17
F      12.34       2.10       1.95
F       4.69       6.61       5.19
F       4.03       2.14      17.26
F      11.56       6.52      13.99
F      12.00      13.60      15.91
F      11.30       8.45      15.99
F       4.67       9.76      13.85
F      11.97       6.13      11.50
F       3.54       1.70      14.77
F       4.21      10.27      11.38
F      13.75      15.41      15.40
F      11.85      10.40       7.67
F       3.51      14.61       4.41
F       4.20       6.10       7.66
F      12.80       1.58       4.42
F       6.41      13.26       0.82
F       5.02       8.47       3.15
F       9.87       3.02       0.95
F      11.21       8.01       3.25
F      14.41      11.28       8.52
