41

Al       0.10      16.85       5.84
H       0.93      14.56       2.53
H       0.86      12.46       1.24
H       3.15      10.52       4.33
H       3.15      11.97       0.40
H       0.93      15.13       9.48
H       0.86       8.32       0.27
H       3.15       7.85       1.11
H       0.93       7.38       5.51
H       0.86       9.55       4.33
C       2.15      16.95       7.88
C       2.15       5.09       4.74
C       2.15      15.04       4.90
C       1.43      13.67       2.91
C       1.38      12.49       2.19
C       2.01      11.33       2.68
C       2.67      11.39       3.91
C       2.68      12.58       4.64
C       2.09      13.74       4.15
C       2.67      17.92      11.53
C       2.68      17.95      10.14
C       2.09      16.94       9.38
C       1.43      15.91      10.05
C       1.38      15.88      11.44
C       2.01      10.14       0.53
C       2.67       7.77       2.07
C       2.68       6.54       2.74
C       2.09       6.39       3.99
C       1.43       7.49       4.55
C       1.38       8.71       3.88
C       2.01       8.87       2.63
N       1.98      10.11       1.95
Cl       3.44      12.58       6.20
Cl       3.44       5.81       9.36
Cl       3.44       5.20       1.96
O       3.14      15.80       4.65
O       3.14      16.35       7.35
O       3.14       4.93       5.52
O       1.20      15.29       5.71
O       1.20       4.26       4.55
O       1.20      17.52       7.25
