54

Al       3.17       4.77       8.68
Al       6.49       4.75       8.67
H       4.83       3.28       7.74
H       8.13       6.21       9.67
H       9.46       8.78       7.92
H       3.56       0.74       9.39
H       3.60       5.99       4.87
H       3.70       6.42       2.41
H       6.12       4.89       4.51
H       6.93       4.10      12.75
H       9.50       5.43      12.67
H       9.53       5.70      15.16
H       6.15       5.12       0.86
H       5.23       4.64       2.23
H       7.09       4.12      16.41
H       7.93       3.70      14.97
C       8.13       5.09       6.28
C       8.19       2.34       8.68
C       4.88       4.65      11.09
C       4.81       7.18       8.66
C       8.20       0.85       8.65
C       4.82       8.68       8.66
C       7.10       0.07       8.24
C       5.92       9.46       9.07
C      10.33       9.36       8.24
C       2.69       0.17       9.07
C       8.18       5.40       4.82
C       2.73       5.83       4.24
C       2.78       6.07       2.87
C       8.32       5.82       2.05
C       7.09       5.40       2.65
C       7.04       5.22       4.03
C       8.39       5.91       0.64
C       4.92       5.11      16.78
C       4.91       5.01      15.37
C       6.08       4.55      14.69
C       6.04       4.44      13.29
C       4.88       4.74      12.58
C      10.39       5.19      13.25
C      10.41       5.33      14.62
N       5.98       5.21       1.86
N       7.22       4.26      15.41
O       9.25       4.85       6.85
O       7.08       2.93       8.55
O       6.00       4.46      10.51
O      10.33       6.63       8.52
O       3.76       4.80      10.50
O       5.92       6.58       8.80
O       6.98       5.06       6.83
O       2.66       2.91       8.82
O       4.82       4.19       8.08
O       8.16       5.32       9.27
F       5.95       0.65       7.79
F       7.06       8.88       9.51
