139

Zn       5.67       5.63      13.28
Zn       5.65       8.42      13.31
Zn       5.63       8.47       2.14
Zn       5.62       5.68       2.16
H       7.09       3.48      11.81
H       4.18      10.56      14.75
H       7.13      10.57      11.86
H       7.17      13.03      11.80
H       4.17       3.47      14.75
H       4.12       1.01      14.80
H       5.62       9.22       6.47
H       4.73       3.94       6.46
H       6.51       3.92       6.45
H       6.53       3.94       8.97
H       4.74       3.96       8.98
H       5.62       4.88      17.56
H       5.68       9.17      24.49
H       5.68       4.89      24.47
H       5.66       4.91      22.03
H       5.66       9.16      17.59
H       5.67       9.14      20.03
H       9.98       4.85      13.30
H       9.96      10.14      12.41
H       9.94      10.15      14.19
H       1.32      10.12      14.22
H       1.34      10.13      12.43
H       7.07      10.60       3.58
H       4.13       3.55       0.69
H       7.08       3.51       3.58
H       7.13       1.04       3.61
H       4.13      10.63       0.67
H       4.10      13.10       0.62
H       9.94       9.23       2.13
H       9.92       3.94       3.04
H       9.90       3.93       1.26
H       1.28       3.96       1.23
H       1.30       3.95       3.01
H       7.85       1.60      11.09
H       3.42      12.43      15.50
H       5.65       3.89      19.40
H       5.70      10.16      22.65
H       7.85      12.46       4.31
H       3.48       1.68      26.56
H       5.61       9.27      10.01
H       2.37       4.82      13.26
H       2.34       9.26       2.17
C       5.62       7.02      15.91
C       2.99       7.03      13.29
C       5.64       7.05      10.63
C       8.27       6.98      13.27
C       5.67       7.05      26.15
C       2.96       7.05       2.14
C       5.63       7.09       4.77
C       8.24       7.10       2.14
C       6.44       2.89      12.47
C       6.49       1.49      12.43
C       4.83      11.15      14.11
C       4.79      12.55      14.16
C       6.47      11.16      12.50
C       6.48      12.54      12.48
C       4.82       2.88      14.09
C       4.80       1.50      14.11
C       5.64       0.72      13.28
C       5.64      13.32      13.31
C       5.64       7.07       6.27
C       5.64       7.07       9.16
C       5.64       5.89       7.01
C       5.64       8.28       8.41
C       5.64       5.90       8.40
C       5.64       8.27       7.00
C       5.63       4.37       6.92
C       5.63       4.38       8.50
C       5.63       7.02      17.40
C       5.67       7.03      24.65
C       5.63       5.82      18.12
C       5.64       5.80      19.51
C       5.67       8.23      23.94
C       5.67       8.25      22.54
C       5.67       5.84      23.93
C       5.66       5.86      22.55
C       5.64       8.21      18.13
C       5.66       8.19      19.51
C       5.65       7.00      20.29
C       5.66       7.05      21.77
C       9.77       7.00      13.29
C       1.52       7.01      13.31
C      10.50       8.19      13.31
C       0.77       5.79      13.30
C       0.75       8.18      13.31
C      10.50       5.81      13.30
C      10.41       9.70      13.31
C       0.86       9.69      13.32
C       6.42      11.20       2.93
C       6.48      12.59       2.97
C       4.79       2.95       1.33
C       4.74       1.56       1.27
C       6.43       2.93       2.94
C       6.44       1.54       2.94
C       4.79      11.22       1.32
C       4.78      12.60       1.30
C       5.63      13.37       2.13
C       5.59       0.78       2.11
C       9.73       7.08       2.14
C       1.48       7.07       2.14
C      10.46       5.89       2.14
C       0.73       8.29       2.14
C       0.72       5.90       2.13
C      10.46       8.28       2.13
C      10.37       4.38       2.14
C       0.82       4.39       2.13
N       5.63       3.57      13.27
N       5.65      10.47      13.31
N       5.60      10.52       2.13
N       5.61       3.63       2.14
O       5.61       5.89      15.32
O       5.62       8.16      15.34
O       3.59       8.15      13.31
O       3.59       5.88      13.26
O       5.62       8.20      11.24
O       5.66       5.93      11.23
O       7.70       5.84      13.27
O       7.68       8.11      13.26
O       5.55       8.20       0.10
O       5.57       5.93       0.12
O       3.55       5.93       2.13
O       3.56       8.20       2.17
O       5.60       5.95       4.20
O       5.64       8.22       4.18
O       7.66       8.24       2.14
O       7.65       5.97       2.16
O       7.37       0.91      11.56
O       3.91      13.13      15.03
O       5.65       4.56      20.12
O       5.68       9.49      21.94
O       7.37      13.17       3.84
O       3.86       0.98       0.40
O       5.63       9.49       9.03
O       1.39       4.59      13.29
O       1.36       9.49       2.15
