136

Zn      -3.48       4.79      10.48
Zn      11.24      -0.10       7.40
Zn       1.87       6.84      12.17
Zn       6.11       9.72       9.09
Zn       9.23       2.97       2.57
Zn      -5.49       7.86       5.65
Zn       3.88       0.92       0.87
Zn      -0.36      -1.95       3.95
H      -4.48       3.04       8.02
H      12.02      -3.17       7.64
H      -1.30       6.69      11.93
H       4.72       8.25      11.55
H      10.22       4.73       5.03
H      -6.28      10.93       5.40
H       7.05       1.07       1.12
H       1.03      -0.49       1.50
H      -3.77       1.92      12.02
H       8.53      -1.17       8.88
H       1.63       3.93      10.69
H       3.44       8.60       7.55
H       9.51       5.85       1.03
H      -2.78       8.94       4.17
H       4.12       3.83       2.36
H       2.31      -0.84       5.50
H      -4.61      -0.30      10.59
H       8.32      -3.86       9.52
H      -0.88       2.95      10.05
H       1.56       7.15       8.98
H      10.36       8.07       2.46
H      -2.57      11.63       3.53
H       6.63       4.82       3.00
H       4.19       0.62       4.06
H      -5.68       6.33       8.53
H      12.77      -1.32       4.71
H      10.74       0.18       1.81
H      -8.02       8.06      11.04
H      11.43       1.43       4.52
H      -7.02       9.08       8.33
H      -5.00       7.58      11.24
H      13.76      -0.30       2.00
H      -1.51       5.78       8.23
H      -2.02       0.14       8.39
H       5.97      -5.77      11.18
H      -5.02      -3.64      11.34
H       7.26       1.99       4.82
H       7.76       7.62       4.65
H      -0.22      13.53       1.87
H      10.77      11.41       1.71
H      -2.41       7.20       6.02
H       0.12      -0.69       6.83
H       4.55      -3.97      12.74
H       2.34       3.68       0.51
H       8.16       0.57       7.03
H       5.63       8.45       6.22
H       1.20      11.73       0.30
H       3.40       4.09      12.54
C      -4.40       2.43       8.92
C      11.04      -2.99       8.07
C      -0.84       5.80      11.50
C       4.11       8.15      10.66
C      10.15       5.34       4.13
C      -5.29      10.76       4.98
C       6.59       1.96       1.54
C       1.64      -0.38       2.39
C      -4.04       1.83      10.98
C       9.23      -1.99       8.71
C       0.65       4.36      10.86
C       3.43       8.31       8.60
C       9.79       5.94       2.07
C      -3.48       9.75       4.34
C       5.10       3.40       2.19
C       2.31      -0.55       4.45
C      -4.45       0.72      10.26
C       9.12      -3.32       9.04
C      -0.59       3.87      10.53
C       2.50       7.60       9.31
C      10.20       7.04       2.78
C      -3.37      11.08       4.01
C       6.34       3.89       2.51
C       3.25       0.17       3.74
C      -4.66       6.37       8.15
C      -2.78      -1.03       5.51
C      10.82       0.92       1.02
C      -3.53      -6.48      11.42
C      10.41       1.39       4.90
C       8.53       8.79       7.54
C      -5.07       6.84      12.03
C       9.28      14.25       1.62
C      -2.51       6.11       7.96
C      -2.00      -0.28       7.39
C       5.56      -5.88      12.18
C      -4.42      -4.50      11.61
C       8.26       1.66       5.08
C       7.75       8.05       5.65
C       0.19      13.64       0.87
C      10.17      12.27       1.44
C      -2.96       6.81       6.87
C      -0.94      -0.70       6.62
C       4.85      -4.99      12.95
C      -3.62      -4.73      12.70
C       8.71       0.96       6.18
C       6.69       8.46       6.43
C       0.90      12.75       0.09
C       9.37      12.49       0.34
N      -4.01       2.91      10.11
N      10.45      -1.79       8.09
N       0.49       5.59      11.48
N       4.46       8.66       9.46
N       9.76       4.86       2.93
N      -4.70       9.55       4.95
N       5.26       2.18       1.57
N       1.29      -0.89       3.59
N      -4.68       1.11       8.96
N      10.28      -3.95       8.63
N      -1.54       4.80      10.94
N       2.93       7.50      10.61
N      10.43       6.65       4.09
N      -4.53      11.72       4.42
N       7.28       2.97       2.10
N       2.82       0.27       2.44
N      -3.60       5.84       8.77
N      -3.17      -0.50       6.68
N       5.69      -7.05      12.89
N      -4.36      -5.62      10.80
N       9.35       1.93       4.27
N       8.91       8.26       6.37
N       0.05      14.82       0.16
N      10.11      13.39       2.25
N      -4.33       6.97       6.99
N      -1.44      -1.17       5.42
N      10.30       2.16       1.10
N      -3.06      -5.98      12.58
N      10.07       0.79       6.06
N       7.19       8.93       7.63
N      -4.55       5.60      11.94
N       8.81      13.75       0.47
