96

Al       6.91       9.59       8.42
Al       3.59       9.56       8.42
Al       2.24       0.05       0.01
Al       7.58      19.15      16.89
H       7.50      15.61      14.66
H       4.61      17.22      13.35
H       6.57      13.60      13.58
H       4.73      15.54      11.53
H       6.72      11.83      11.84
H       7.44      13.75       6.17
H       2.95      14.79       4.61
H       4.16      12.21       4.66
H       2.77      11.59       2.24
H       7.26      10.55       3.81
H       6.05      13.13       3.77
H       2.75       6.22      13.39
H       4.23       8.66      13.20
H       6.43       7.34      14.48
H       7.43       6.62      11.90
H       1.98       2.52       3.36
H       0.58       5.32       3.34
H       2.03       4.29       5.12
H       7.28       7.11       5.08
H       3.25       6.17       6.24
H       5.22      11.27       8.80
H       1.92       7.94       9.08
H       4.86      14.27       0.74
H       0.50       1.67       0.49
C       5.21       8.13      10.38
C       5.29       7.81       6.78
C       1.98      10.98       6.48
C       1.90      11.41      10.02
C       2.72      16.51      14.11
C       1.93      12.54      11.00
C       7.41      13.57      12.89
C       7.49      12.59      11.93
C       2.91      13.53      11.07
C       2.88      14.55      12.07
C       1.77      14.57      12.99
C       1.71      15.57      13.98
C       3.82      16.48      13.22
C       3.89      15.54      12.22
C       2.43      13.84       4.44
C       1.23      13.28       5.29
C       1.92      11.87       5.29
C       3.11      12.42       4.44
C       2.33      12.06       3.13
C       1.13      11.50       3.97
C       7.10      12.92       3.97
C       1.64      13.47       3.12
C       4.34       5.92      11.66
C       5.57       5.22      12.34
C       5.00       5.62      13.75
C       3.79       6.33      13.06
C       4.61       7.66      12.98
C       5.84       6.95      13.65
C       6.40       6.54      12.25
C       5.19       7.25      11.57
C       3.99       2.88       2.67
C       5.25       6.74       5.75
C       6.36       5.51       3.97
C       6.39       6.49       4.94
C       4.11       5.97       5.60
C       4.05       4.93       4.64
C       5.19       4.71       3.81
C       5.12       3.67       2.85
C       2.87       3.14       3.51
C       2.90       4.12       4.47
C       3.90       1.80       1.64
C       4.97       4.77      14.96
C       2.67      17.53      15.20
C       1.57      14.35       1.93
Br       3.29       5.19      10.24
Br       4.32      13.65       9.77
O       4.18       8.11       7.34
O       6.33       8.34       9.81
O       7.40      10.90       9.78
O       6.42       8.34       7.04
O       7.51      10.78       7.07
O       4.07       8.58      10.02
O       5.24      10.39       8.39
O       3.10      10.51       6.83
O       3.00      11.02       9.53
O       1.92       8.75       8.54
O       6.08       4.24      15.29
O       2.74       1.32       1.41
O       2.68      14.60       1.35
O       3.87       4.67      15.59
O       3.77      18.12      15.46
O       4.98       1.44       1.08
O       4.90      15.00       0.11
O       8.21      17.71      15.80
O       7.06      14.78       1.57
O       1.56       4.22      16.89
F       6.04       3.98      12.01
F       6.23       3.51       2.08
