200

Al       7.52       4.90      13.90
Al       9.32       7.55      13.87
Al      10.73       4.92      13.84
Al      17.38      10.37       0.45
Al      14.16      10.44       0.41
Al      15.51       7.76       0.45
H      12.42      10.29      21.39
H      14.35       9.25      19.58
H      12.61      11.27       6.38
H      12.28      10.96       8.79
H      13.21       6.04       3.58
H      12.82       4.51       5.52
H      12.38       4.20       7.93
H      11.96       5.17      10.19
H      11.48       0.59       4.04
H      11.38       2.39      10.58
H      12.64       0.78       6.24
H      14.63      10.98      21.42
H      10.47       8.58      20.29
H      12.59       1.39       8.64
H       7.39       1.81       3.63
H       6.18       2.83       5.57
H       6.12       3.43       7.97
H       7.27       3.60      10.18
H       3.79       6.23       4.14
H       5.53       5.73      10.70
H       3.51       5.12       6.38
H       6.54       9.50       3.68
H       5.59       5.64      21.65
H      11.20       6.58      22.20
H       7.88      10.31       5.62
H       8.43      10.19       8.03
H       8.14       9.10      10.24
H      13.07       5.53      20.39
H      15.04       7.25      21.49
H      11.91       1.85      21.57
H      16.81      11.38      19.65
H       9.61       5.51      21.95
H       8.87       7.05      23.75
H       4.01       6.94      19.65
H       7.17       6.29      25.40
H       6.19       4.01      25.21
H       6.95       2.48      23.44
H       5.74       2.83      21.38
H       6.03       1.07      21.57
H       5.01       1.67      20.22
H      10.82      11.33      11.47
H       9.85       9.82      11.42
H      10.30      10.65       9.89
H      14.78       5.37       9.12
H       7.91       6.71      20.45
H       3.21       5.95      10.38
H       2.71       4.23      10.36
H       9.02       4.88      19.42
H      10.50       5.08      18.42
H      10.22       6.15      19.83
H       7.71       8.99      22.13
H       6.15      10.29      20.14
H      16.52       9.22      21.34
H      12.89      10.30       4.09
H       5.76       3.57      14.68
H       0.52       0.59      27.40
C       7.32       7.26      15.77
C      12.30       7.49      18.16
C       7.48       5.63      24.60
C       6.93       4.35      24.49
C       7.35       3.49      23.47
C       5.89       1.88      20.84
C      10.63      10.41      10.92
C       2.94       5.10       9.73
C      10.09       5.13      19.44
C      10.20       0.90      20.22
C      11.42       7.01      15.71
C      10.87       1.86      21.26
C       9.60       1.25      24.82
C       9.45       2.69      16.97
C       8.98       0.68      21.17
C       9.65       1.64      22.22
C       8.24       1.92      20.51
C       9.47       2.12      19.54
C      12.00       7.31      16.99
C       8.90       2.91      21.59
C      10.15       3.08      20.62
C       9.67       1.41      23.61
C       9.43       3.35      15.70
C       9.42       2.39      18.15
C       4.83       7.39      20.22
C       5.70       6.67      21.30
C       5.10       8.03      24.82
C       6.80       7.71      17.03
C       4.72       8.66      21.12
C      14.03       7.55      21.21
C       5.59       7.94      22.24
C       6.02       9.25      20.48
C       6.13       7.99      19.55
C       6.90       8.54      21.57
C       7.33       7.21      11.99
C       7.00       7.27      20.67
C       5.31       7.97      23.62
C       6.47       7.90      18.18
C      11.93       8.58      10.08
C      12.19       8.78       8.70
C      12.96       8.13      22.24
C      12.63       9.14       5.90
C      12.51      10.26       6.79
C      12.32      10.09       8.13
C      12.84       9.30       4.53
C      13.05       8.19       3.70
C      11.42       6.99      12.00
C      12.03       6.17       9.76
C      12.27       6.32       8.39
C      12.34       7.64       7.84
C      12.44       5.20       7.51
C      12.94       6.59      20.62
C      12.69       5.38       6.18
C      12.76       6.69       5.60
C      12.57       7.83       6.45
C      13.02       6.89       4.24
C      11.84       7.27      10.61
C      10.49       2.50       9.95
C       9.30       3.54      11.90
C      10.54       2.11       8.60
C      10.59       1.40       5.84
C      11.74       1.22       6.68
C      12.55       7.69      19.54
C      11.71       1.55       8.00
C      10.59       1.03       4.50
C       9.44       1.16       3.71
C       8.17       3.18       9.72
C       8.18       2.83       8.36
C       9.37       2.30       7.79
C       7.02       3.02       7.53
C      13.64       8.66      20.18
C       7.06       2.68       6.20
C       8.24       2.13       5.60
C      11.88       7.17      21.60
C       9.40       1.95       6.41
C       8.27       1.72       4.26
C       9.32       3.03      10.50
C       5.92       6.52      10.06
C       5.53       6.63       8.72
C       4.85       6.80       5.95
C       4.24       5.82       6.80
C       4.57       5.73       8.12
C      12.58       9.23      21.16
C       4.53       6.90       4.59
C      11.49       8.28      20.57
C       5.14       7.87       3.79
C       7.41       8.43       9.80
C       7.08       8.54       8.45
C       6.12       7.63       7.89
C       7.70       9.51       7.60
C       7.39       9.58       6.27
C       6.43       8.69       5.68
C       5.80       7.71       6.51
C       6.09       8.75       4.33
C      13.23       8.43      24.84
C      13.12       8.31      23.63
C       6.85       7.42      10.60
C       9.58       0.82      26.19
C      13.62       8.63      26.21
C       4.82       8.33      26.19
C       9.47       0.60       2.34
C      13.44       8.42       2.29
C       4.73       8.07       2.38
C       8.31       3.90      22.53
C       8.84       5.19      22.65
C       8.43       6.05      23.67
O       8.29       3.64      15.22
O      14.36       7.72      26.73
O       4.16       7.46      26.88
O       7.07       6.06      15.45
O       5.20       9.07       1.77
O      10.58       0.20       1.90
O       8.35       0.51       1.70
O      13.19       9.57       1.78
O      14.08       7.49       1.68
O      16.58       7.24       1.87
O      15.66       9.51       0.42
O      10.71       7.85      12.63
O       8.04       8.10      15.09
O      10.57       7.86      15.26
O      11.73       5.91      15.15
O      10.57       3.64      15.18
O       8.18       3.88      12.37
O       6.89       6.21      12.62
O       8.21       8.03      12.44
O       7.00       1.97      19.94
O      11.87       9.68      10.90
O       4.05       4.71       8.89
O      11.70       5.83      12.48
O      10.83       4.23      20.30
O      10.43       3.64      12.52
O       9.21       5.80      13.89
O       5.22       9.46      26.60
O      10.69       0.60      26.75
O       8.41       0.65      26.72
O      13.26       9.72      26.79
O       5.96       4.10      13.90
O       6.25      11.13       0.51
