60

Al       3.78       4.43       7.18
Al       0.17       4.43       7.20
H      -1.65       5.45       8.67
H       1.95       3.01       6.13
H      -0.01       3.43      11.26
H      -3.12       4.61      11.07
H       0.39       4.50       3.09
H       3.49       5.63       3.44
H       3.51       3.85       0.02
H      -0.95       2.94      13.60
H      -2.63       5.30      14.48
H      -1.81       4.40      13.20
H      -3.12       2.29      14.21
H       1.34       4.41       0.71
H       3.03       6.87       0.16
H       2.20       5.81       1.30
H      -3.35       8.46       6.16
H      -0.38       8.48       9.39
H      -1.25       8.47       7.83
H       2.39       0.42       7.80
H       3.26       0.43       9.36
C       1.98       6.77       7.18
C       1.97       4.18       9.54
C      -1.65       2.08       7.14
C      -1.62       4.83       4.87
C      -0.04       3.20      14.13
C      -2.67       4.39      13.87
C       0.43       4.73       0.22
C       3.06       5.88       0.64
C       0.90       3.71      11.78
C       0.99       3.66      13.16
C      -4.00       4.39      11.68
C      -3.92       4.35      13.06
C      -0.52       4.87       2.62
C      -0.60       5.05       1.24
C       4.37       5.52       2.82
C       4.31       5.71       1.44
C       2.02       4.10      11.03
C       2.17       4.03      13.80
C      -1.66       5.12       3.41
C      -1.79       5.51       0.66
C       1.96       8.26       7.14
C      -1.65       0.59       7.11
C       0.90       9.01       7.66
C      -0.60      -0.20       6.58
C       4.53      -0.16       7.64
C      -4.20       8.99       6.59
C      -0.43       8.94       8.39
C       3.20      -0.05       8.37
O       3.13       6.22       7.10
O       0.81       4.15       9.00
O      -0.51       2.65       7.12
O      -2.76       4.67       5.43
O       4.43       2.62       7.19
O      -0.47       4.74       5.42
O       0.84       6.21       7.29
O       3.10       4.28       8.95
O      -1.65       4.96       7.83
O       1.97       3.87       6.56
F       0.46       0.41       5.98
