138

Zn       4.51       7.08       8.08
Zn      11.06       9.73       4.56
Zn       1.78      10.71       9.17
Zn       7.25       5.03       4.90
Zn      13.79       6.11       3.47
Zn       8.33      11.79       7.74
H       4.05      10.69       6.95
H       4.97       7.17       4.31
H      11.52       6.13       5.69
H      10.60       9.65       8.33
H       2.09      13.90       8.83
H       6.94       4.47       1.74
H      13.49       2.92       3.81
H       8.63      12.35      10.90
H       5.01      13.05       5.85
H       4.01       7.56       1.73
H      10.56       3.77       6.78
H      11.56       9.25      10.91
H       1.72       2.81       8.86
H       7.30       7.53      12.40
H      13.85      14.00       3.78
H       8.27       9.29       0.24
H       1.77       5.21       8.24
H       7.26       7.45       9.93
H      13.80      11.61       4.40
H       8.32       9.36       2.71
H       3.20       4.16       4.31
H       5.83      11.52       9.84
H      12.37      12.65       8.33
H       9.75       5.29       2.80
H       3.11       1.78       4.89
H       5.92      11.62      12.29
H      12.47      15.04       7.74
H       9.65       5.20       0.35
H       2.47       9.59      11.84
H       6.56       2.77       6.72
H      13.11       7.22       0.80
H       9.02      14.04       5.92
H       3.97       6.97      12.48
H       5.05       2.89       9.41
H      11.60       9.85       0.16
H      10.52      13.93       3.23
C       3.82      11.72       7.19
C       5.21       6.65       3.38
C      11.76       5.10       5.45
C      10.37      10.17       9.26
C       2.78      13.36       8.19
C       6.25       5.23       2.08
C      12.80       3.46       4.45
C       9.32      11.58      10.56
C       4.26      12.88       6.61
C       4.76       6.88       2.11
C      11.31       3.94       6.03
C      10.81       9.93      10.53
C       2.41       2.14       6.92
C       6.61       9.58      12.51
C      13.16      14.68       5.72
C       8.96       7.24       0.13
C       2.03       3.11       7.86
C       6.99       8.41      11.84
C      13.54      13.71       4.78
C       8.58       8.41       0.80
C       2.07       4.45       7.51
C       6.95       8.36      10.45
C      13.50      12.36       5.13
C       8.62       8.46       2.19
C       2.50       4.85       6.24
C       6.53       9.48       9.71
C      13.08      11.97       6.40
C       9.05       7.34       2.93
C       2.89       3.88       5.31
C       6.14      10.64      10.39
C      12.69      12.94       7.33
C       9.44       6.18       2.25
C       2.84       2.53       5.64
C       6.19      10.70      11.78
C      12.74      14.29       7.00
C       9.38       6.12       0.86
C       2.55       6.27       5.89
C       6.48       9.41       8.25
C      13.03      10.54       6.75
C       9.10       7.40       4.39
C       3.37       8.38      10.25
C       5.65       4.64       7.44
C      12.20       8.44       2.39
C       9.92      12.18       5.20
C       3.04       8.68      11.66
C       5.99       3.20       7.54
C      12.54       8.14       0.98
C       9.58      13.61       5.10
C       2.18       4.23       0.03
C       6.85      15.61       8.58
C      13.40      12.59      12.61
C       8.73       1.21       4.06
C       1.82       4.51       1.45
C       7.21      14.17       8.71
C      13.76      12.31      11.19
C       8.37       2.65       3.93
N       2.89      12.04       8.17
N       6.13       5.62       3.35
N      12.68       4.78       4.47
N       9.44      11.20       9.29
N       3.59      13.92       7.25
N       5.44       5.98       1.29
N      11.98       2.90       5.39
N      10.14      10.84      11.35
N       2.00       6.85       4.80
N       7.03      10.30       7.40
N      13.58       9.97       7.83
N       8.55       6.52       5.24
N       2.27       8.18       4.88
N       6.75       9.86       6.14
N      13.30       8.64       7.76
N       8.82       6.96       6.50
N       2.96       8.40       5.96
N       6.07       8.76       6.22
N      12.62       8.41       6.68
N       9.51       8.06       6.42
N       3.15       7.23       6.62
N       5.88       8.45       7.53
N      12.43       9.59       6.02
N       9.70       8.37       5.10
O       3.08       9.22       9.32
O       5.95       5.30       6.38
O      12.49       7.60       3.31
O       9.63      11.52       6.26
O       3.99       7.29       9.99
O       5.04       5.20       8.41
O      11.59       9.52       2.65
O      10.54      11.62       4.23
O       1.92       3.60       2.30
O       7.10      13.60       9.82
O      13.65      13.22      10.33
O       8.47       3.22       2.82
O       1.39       5.72       1.70
O       7.64      13.60       7.62
O      14.19      11.10      10.94
O       7.94       3.22       5.02
