84

Zn       7.71       5.81       9.25
Zn       4.92       5.98      10.15
H       4.23       1.76      11.10
H       8.25      10.04       8.38
H       4.84      10.08      11.00
H       7.66       1.72       8.50
H       3.22       5.84       3.11
H       9.54       5.48      16.24
H       5.71       7.48      16.33
H       7.09       3.92       3.10
H       7.35       5.37       1.38
H       5.43       5.90      18.00
H       9.67       6.63      18.30
H       3.11       4.64       1.08
H       3.21      10.02       9.37
H       9.32       1.85      10.04
H       3.99       4.42      12.97
H       8.69       7.53       6.33
C       6.52       9.92       9.66
C       5.97       1.88       9.83
C       6.04       3.37       9.89
C       6.43       8.43       9.57
C       7.28       6.24      12.15
C       5.56       5.44       7.20
C       4.95       1.20      10.51
C       7.53      10.60       8.98
C       5.59      10.63      10.43
C       6.90       1.17       9.06
C       4.13       5.46       5.01
C       8.68       6.02      14.36
C       6.56       7.05      14.42
C       6.27       4.47       4.99
C       4.08       5.42       3.62
C       8.69       5.95      15.76
C       6.55       7.03      15.80
C       6.25       4.39       3.61
C       5.17       4.91       2.89
C       7.61       6.43      16.50
C       2.09       7.02       9.24
C      10.52       4.82      10.08
C       2.03       5.12      10.55
C      10.59       6.72       8.77
C       5.25       5.07       5.75
C       7.59       6.50      13.63
C       6.45       5.24       0.78
C       6.32       6.03      18.61
C       8.71       6.40      18.76
C       4.07       4.87       0.62
C       7.55       6.29      17.97
C       5.22       4.99       1.41
C       2.82       8.27       8.77
C       9.79       3.59      10.60
C       2.66       4.26      11.61
C       9.95       7.61       7.74
N       9.91       5.63       9.20
N       2.71       6.20      10.11
N       2.89       5.98       5.64
N       9.94       5.55      13.73
N       5.45       7.79      13.78
N       7.44       3.81       5.63
O       7.16       3.91       9.61
O       5.37       7.89      10.04
O       7.41       7.81       9.05
O       4.97       3.99      10.20
O       8.17       6.34      11.27
O       4.63       5.65       8.02
O       6.81       5.56       7.40
O       6.07       5.91      11.98
O       3.42       8.34       7.72
O       2.69       9.25       9.68
O       9.22       3.56      11.66
O       9.87       2.60       9.70
O       2.41       3.08      11.76
O       3.49       5.00      12.36
O      10.17       8.81       7.68
O       9.17       6.91       6.92
O       2.35       5.26       6.49
O       2.44       7.05       5.22
O      10.43       6.28      12.86
O      10.46       4.52      14.19
O       5.76       8.67      12.97
O       4.30       7.54      14.18
O       7.18       2.89       6.41
O       8.56       4.17       5.26
