376

Co       9.45       5.86      16.82
Co       9.45      16.84       5.87
Co       9.45      17.22      17.20
Co       9.45       5.47       5.49
Co       3.22       5.49       5.47
Co       3.22      17.20      17.22
Co       3.22      16.82       5.86
Co       3.22       5.87      16.84
H       2.87      14.78      15.51
H       2.87       7.92       7.18
H       2.87      18.53       3.43
H       2.87       4.16      19.26
H       9.79      19.26       4.16
H       9.79       3.43      18.53
H       9.79      15.51      14.78
H       9.79       7.18       7.92
H       4.14      12.69      15.03
H       4.14      10.00       7.66
H       4.14      19.01       1.35
H       4.14       3.69      21.35
H       8.52      21.35       3.69
H       8.52       1.35      19.01
H       8.52      15.03      12.69
H       8.52       7.66      10.00
H       7.25      14.18      17.67
H       7.25       8.51       5.03
H       7.25      16.37       2.84
H       7.25       6.32      19.86
H       5.42      19.86       6.32
H       5.42       2.84      16.37
H       5.42      17.67      14.18
H       5.42       5.03       8.51
H       5.88      16.21      17.99
H       5.88       6.49       4.71
H       5.88      16.05       4.86
H       5.88       6.64      17.83
H       6.78      17.83       6.64
H       6.78       4.86      16.05
H       6.78      17.99      16.21
H       6.78       4.71       6.49
H       4.80      10.74      15.81
H       4.80      11.95       6.89
H       4.80      18.24      22.09
H       4.80       4.46       0.60
H       7.87       0.60       4.46
H       7.87      22.09      18.24
H       7.87      15.81      10.74
H       7.87       6.89      11.95
H       6.03       8.59      15.81
H       6.03      14.10       6.88
H       6.03      18.23      19.94
H       6.03       4.46       2.76
H       6.63       2.76       4.46
H       6.63      19.94      18.23
H       6.63      15.81       8.59
H       6.63       6.88      14.10
H       9.71      10.70      16.50
H       9.71      12.00       6.20
H       9.71      17.54      22.04
H       9.71       5.15       0.65
H       2.95       0.65       5.15
H       2.95      22.04      17.54
H       2.95      16.50      10.70
H       2.95       6.20      12.00
H       8.49      12.86      16.55
H       8.49       9.84       6.15
H       8.49      17.49       1.51
H       8.49       5.20      21.18
H       4.18      21.18       5.20
H       4.18       1.51      17.49
H       4.18      16.55      12.86
H       4.18       6.15       9.84
H       4.09       5.86       2.62
H       4.09      16.83      20.07
H       4.09       8.72      17.21
H       4.09      13.97       5.49
H       8.58       5.49      13.97
H       8.58      17.21       8.72
H       8.58       2.62       5.86
H       8.58      20.07      16.83
H       2.97       6.11       0.42
H       2.97      16.59      22.27
H       2.97      10.93      17.45
H       2.97      11.77       5.24
H       9.70       5.24      11.77
H       9.70      17.45      10.93
H       9.70       0.42       6.11
H       9.70      22.27      16.59
H      11.85       6.21       2.54
H      11.85      16.49      20.15
H      11.85       8.80      17.55
H      11.85      13.89       5.14
H       0.81       5.14      13.89
H       0.81      17.55       8.80
H       0.81       2.54       6.21
H       0.81      20.15      16.49
H       0.47       6.07       4.65
H       0.47      16.62      18.05
H       0.47       6.70      17.42
H       0.47      15.99       5.27
H      12.20       5.27      15.99
H      12.20      17.42       6.70
H      12.20       4.65       6.07
H      12.20      18.05      16.62
H       1.64       5.01      21.61
H       1.64      17.68       1.08
H       1.64      12.43      16.36
H       1.64      10.26       6.34
H      11.03       6.34      10.26
H      11.03      16.36      12.43
H      11.03      21.61       5.01
H      11.03       1.09      17.68
H       0.32       5.03      19.50
H       0.32      17.66       3.20
H       0.32      14.54      16.38
H       0.32       8.15       6.32
H      12.35       6.32       8.15
H      12.35      16.38      14.54
H      12.35      19.50       5.03
H      12.35       3.20      17.66
H       9.99       7.48      21.38
H       9.99      15.22       1.32
H       9.99      12.66      18.83
H       9.99      10.03       3.87
H       2.67       3.87      10.03
H       2.67      18.83      12.66
H       2.67      21.38       7.48
H       2.67       1.32      15.22
H      11.33       7.51       0.79
H      11.33      15.18      21.91
H      11.33      10.56      18.86
H      11.33      12.13       3.83
H       1.34       3.83      12.13
H       1.34      18.86      10.56
H       1.34       0.79       7.51
H       1.34      21.91      15.18
C       3.84      14.59      15.98
C       3.84       8.10       6.72
C       3.84      18.06       3.24
C       3.84       4.63      19.45
C       8.82      19.45       4.63
C       8.82       3.24      18.06
C       8.82      15.98      14.59
C       8.82       6.72       8.10
C       4.55      13.43      15.73
C       4.55       9.27       6.97
C       4.55      18.31       2.08
C       4.55       4.38      20.61
C       8.11      20.61       4.38
C       8.11       2.08      18.31
C       8.11      15.73      13.43
C       8.11       6.97       9.27
C       5.80      13.21      16.35
C       5.80       9.48       6.34
C       5.80      17.69       1.87
C       5.80       5.00      20.83
C       6.87      20.83       5.00
C       6.87       1.87      17.69
C       6.87      16.35      13.21
C       6.87       6.34       9.48
C       6.28      14.25      17.17
C       6.28       8.44       5.52
C       6.28      16.87       2.90
C       6.28       5.83      19.79
C       6.39      19.79       5.83
C       6.39       2.90      16.87
C       6.39      17.17      14.25
C       6.39       5.52       8.44
C       5.51      15.39      17.37
C       5.51       7.30       5.33
C       5.51      16.67       4.04
C       5.51       6.02      18.65
C       7.16      18.65       6.02
C       7.16       4.04      16.67
C       7.16      17.37      15.39
C       7.16       5.33       7.30
C       6.55      11.96      16.20
C       6.55      10.74       6.49
C       6.55      17.84       0.61
C       6.55       4.85      22.09
C       6.12      22.09       4.85
C       6.12       0.61      17.84
C       6.12      16.20      11.96
C       6.12       6.49      10.74
C       5.88      10.74      15.95
C       5.88      11.95       6.74
C       5.88      18.09      22.09
C       5.88       4.61       0.60
C       6.79       0.60       4.61
C       6.79      22.09      18.09
C       6.79      15.95      10.74
C       6.79       6.74      11.95
C       6.56       9.53      15.96
C       6.56      13.16       6.74
C       6.56      18.08      20.88
C       6.56       4.61       1.81
C       6.10       1.81       4.61
C       6.10      20.88      18.08
C       6.10      15.96       9.53
C       6.10       6.74      13.16
C       7.95       9.51      16.18
C       7.95      13.18       6.52
C       7.95      17.86      20.86
C       7.95       4.83       1.84
C       4.72       1.84       4.83
C       4.72      20.86      17.86
C       4.72      16.18       9.51
C       4.72       6.52      13.18
C       8.63      10.72      16.35
C       8.63      11.97       6.34
C       8.63      17.69      22.07
C       8.63       5.00       0.63
C       4.03       0.63       5.00
C       4.03      22.07      17.69
C       4.03      16.35      10.72
C       4.03       6.34      11.97
C       7.94      11.93      16.38
C       7.94      10.77       6.32
C       7.94      17.66       0.58
C       7.94       5.03      22.11
C       4.72      22.11       5.03
C       4.72       0.58      17.66
C       4.72      16.38      11.93
C       4.72       6.32      10.77
C       8.68       8.22      16.31
C       8.68      14.47       6.38
C       8.68      17.73      19.57
C       8.68       4.97       3.13
C       3.99       3.13       4.97
C       3.99      19.57      17.73
C       3.99      16.31       8.22
C       3.99       6.38      14.47
C       3.00       5.96       2.56
C       3.00      16.74      20.14
C       3.00       8.79      17.30
C       3.00      13.90       5.39
C       9.66       5.39      13.90
C       9.66      17.30       8.79
C       9.66       2.56       5.96
C       9.66      20.14      16.74
C       2.37       6.08       1.33
C       2.37      16.62      21.36
C       2.37      10.02      17.42
C       2.37      12.68       5.27
C      10.30       5.27      12.68
C      10.30      17.42      10.02
C      10.30       1.33       6.08
C      10.30      21.36      16.62
C       0.97       6.18       1.28
C       0.97      16.51      21.42
C       0.97      10.07      17.53
C       0.97      12.63       5.17
C      11.70       5.17      12.63
C      11.70      17.53      10.07
C      11.70       1.28       6.18
C      11.70      21.42      16.51
C       0.28       6.19       2.50
C       0.28      16.51      20.19
C       0.28       8.84      17.53
C       0.28      13.85       5.16
C      12.39       5.16      13.85
C      12.39      17.53       8.84
C      12.39       2.50       6.19
C      12.39      20.19      16.51
C       0.98       6.07       3.69
C       0.98      16.62      19.00
C       0.98       7.66      17.42
C       0.98      15.04       5.28
C      11.68       5.28      15.04
C      11.68      17.42       7.66
C      11.68       3.69       6.07
C      11.68      19.00      16.62
C       0.23       6.25       0.00
C       0.23      16.44      22.69
C       0.23      11.34      17.60
C       0.23      11.35       5.10
C      12.43       5.10      11.35
C      12.43      17.60      11.34
C      12.43       0.00       6.25
C      12.43      22.69      16.44
C       0.70       5.57      21.56
C       0.70      17.12       1.14
C       0.70      12.48      16.92
C       0.70      10.21       5.78
C      11.96       5.78      10.21
C      11.96      16.92      12.48
C      11.96      21.56       5.57
C      11.96       1.14      17.12
C      12.63       5.57      20.38
C      12.63      17.13       2.31
C      12.63      13.66      16.91
C      12.63       9.03       5.78
C       0.04       5.78       9.03
C       0.04      16.91      13.66
C       0.04      20.38       5.57
C       0.04       2.31      17.13
C      11.39       6.24      20.32
C      11.39      16.46       2.37
C      11.39      13.72      17.58
C      11.39       8.98       5.11
C       1.27       5.11       8.98
C       1.27      17.58      13.72
C       1.27      20.32       6.24
C       1.27       2.37      16.46
C      10.94       6.95      21.44
C      10.94      15.75       1.25
C      10.94      12.60      18.30
C      10.94      10.10       4.40
C       1.72       4.40      10.10
C       1.72      18.30      12.60
C       1.72      21.44       6.95
C       1.72       1.25      15.75
C      11.69       6.96      22.61
C      11.69      15.74       0.08
C      11.69      11.43      18.30
C      11.69      11.27       4.39
C       0.98       4.39      11.27
C       0.98      18.30      11.43
C       0.98      22.61       6.96
C       0.98       0.08      15.74
C      10.54       6.16      19.11
C      10.54      16.53       3.58
C      10.54      14.93      17.51
C      10.54       7.76       5.19
C       2.13       5.19       7.76
C       2.13      17.51      14.93
C       2.13      19.11       6.16
C       2.13       3.58      16.53
N       4.30      15.56      16.80
N       4.30       7.14       5.89
N       4.30      17.24       4.21
N       4.30       5.45      18.48
N       8.37      18.48       5.45
N       8.37       4.21      17.24
N       8.37      16.80      15.56
N       8.37       5.89       7.14
N       2.33       5.94       3.73
N       2.33      16.76      18.97
N       2.33       7.62      17.29
N       2.33      15.07       5.41
N      10.34       5.41      15.07
N      10.34      17.29       7.62
N      10.34       3.73       5.94
N      10.34      18.97      16.76
O       7.98       7.13      16.34
O       7.98      15.57       6.35
O       7.98      17.70      18.47
O       7.98       4.99       4.22
O       4.69       4.22       4.99
O       4.69      18.47      17.70
O       4.69      16.34       7.13
O       4.69       6.35      15.57
O       9.93       8.18      16.45
O       9.93      14.51       6.24
O       9.93      17.59      19.53
O       9.93       5.10       3.17
O       2.73       3.17       5.10
O       2.73      19.53      17.59
O       2.73      16.45       8.18
O       2.73       6.24      14.51
O       9.34       6.55      19.13
O       9.34      16.14       3.56
O       9.34      14.91      17.90
O       9.34       7.78       4.79
O       3.33       4.79       7.78
O       3.33      17.90      14.91
O       3.33      19.13       6.55
O       3.33       3.56      16.14
O      11.05       5.66      18.03
O      11.05      17.03       4.66
O      11.05      16.01      17.01
O      11.05       6.68       5.69
O       1.62       5.69       6.68
O       1.62      17.01      16.01
O       1.62      18.03       5.66
O       1.62       4.66      17.03
