100

Zn       3.38       5.69      14.18
Zn       6.23       5.70      14.14
Zn       6.48       5.64       3.41
Zn       3.63       5.66       3.45
H       6.95       5.98      27.70
H       2.65       5.62      27.77
H       6.78       5.61      18.34
H       2.48       5.96      18.41
C       4.98       3.12      14.24
C       4.63       5.84      16.72
C       4.95       8.27      14.10
C       4.64       5.22      11.67
C       4.88       3.07       3.35
C       5.22       5.81       0.87
C       4.90       8.22       3.50
C       5.24       5.18       5.93
C       0.47       6.36      13.25
C       9.17       5.02      15.12
C       9.18       6.34      13.23
C       0.46       4.99      15.11
C       4.97       9.79      14.15
C       4.98       1.60      14.15
C       6.18      10.53      14.12
C       3.77       0.87      14.07
C       6.18       0.85      14.19
C       3.77      10.55      14.19
C       4.80       5.81      27.89
C       6.00       5.86      27.18
C       5.97       5.76      25.80
C       4.77       5.62      25.07
C       3.59       5.58      25.84
C       3.58       5.66      27.22
C       4.74       5.56      23.66
C       4.69       5.56      22.45
C       4.67       5.61      21.04
C       5.85       5.57      20.27
C       5.85       5.65      18.89
C       4.63       5.79      18.22
C       3.43       5.84      18.93
C       3.46       5.74      20.31
C       4.76       4.79      10.22
C       5.12       4.76       7.38
C       3.65       4.66       9.35
C       6.23       4.67       8.25
C       3.85       4.56       7.96
C       6.04       4.60       9.65
C       9.39       6.32       4.33
C       0.69       4.97       2.47
C       0.68       6.28       4.36
C       9.40       4.95       2.47
C       4.90       9.75       3.46
C       4.88       1.55       3.44
C       3.69      10.49       3.53
C       6.08       0.82       3.49
C       3.67       0.81       3.44
C       6.09      10.49       3.38
N       1.15       5.67      14.18
N       8.49       5.68      14.17
N       8.71       5.63       3.40
N       1.38       5.62       3.42
Cl       1.32       7.27      12.11
Cl       8.33       4.22      16.35
Cl       8.35       7.16      12.01
Cl       1.29       4.07      16.26
Cl       7.72       9.77      13.99
Cl       2.27       1.66      13.77
Cl       7.71       1.61      14.33
Cl       2.24       9.81      14.44
Cl       2.04       4.61       9.93
Cl       7.85       4.62       7.67
Cl       2.51       4.11       6.97
Cl       7.38       4.18      10.64
Cl       8.54       7.24       5.46
Cl       1.53       4.16       1.24
Cl       1.51       7.08       5.60
Cl       8.57       4.04       1.31
Cl       2.16       9.74       3.73
Cl       7.59       1.59       3.75
Cl       2.13       1.57       3.33
Cl       7.61       9.74       3.09
O       3.97       3.68      14.75
O       6.00       3.72      13.78
O       5.72       5.54      16.15
O       3.54       6.16      16.14
O       6.02       7.68      14.46
O       3.90       7.68      13.71
O       3.57       4.94      12.31
O       5.61       5.89      12.13
O       5.89       3.63       2.84
O       3.86       3.68       3.81
O       4.13       5.50       1.45
O       6.32       6.12       1.46
O       3.83       7.64       3.15
O       5.96       7.63       3.89
O       6.30       4.90       5.29
O       4.26       5.84       5.47
F       2.41       5.45      25.18
F       7.13       5.80      25.11
F       2.30       5.78      21.01
F       7.03       5.44      20.93
