168

Cu      13.27      21.13      23.60
Cu      11.97      22.41      21.01
Cu      14.57      23.73      22.32
Cu      22.11      32.56       5.70
Cu      23.40      31.28       3.11
Cu      20.80      29.97       4.42
Cu      30.95      14.65      30.05
Cu      29.64      13.37      32.64
Cu      32.25      12.05      31.33
Cu       4.42       3.22      12.18
Cu       5.73       4.50      14.77
Cu       3.12       5.81      13.46
H      11.32      18.67      24.09
H       9.53      20.40      20.53
H      17.01      24.21      24.33
H      15.23      20.65      26.05
H      11.51      24.40      18.57
H      15.04      26.17      20.35
H      24.06      35.00       6.20
H      25.85      33.28       2.64
H      18.36      29.50       6.43
H      20.15      33.05       8.16
H      23.87      29.31       0.67
H      20.33      27.53       2.44
H      28.99      17.11      29.56
H      27.20      15.38      33.11
H      34.69      11.58      29.32
H      32.92      15.14      27.60
H      29.17      11.38      35.08
H      32.71       9.60      33.30
H       6.38       0.77      11.69
H       8.17       2.50      15.24
H       0.67       6.27      11.45
H       2.47       2.72       9.73
H       6.20       6.48      17.21
H       2.66       8.25      15.44
C      11.05      19.27      23.22
C       9.99      19.09      22.32
C      10.14      20.15      21.40
C      16.40      23.34      24.57
C      16.56      22.43      25.63
C      15.49      21.52      25.46
C      12.37      24.66      19.18
C      13.27      25.72      19.02
C      14.18      25.56      20.09
C      24.33      34.41       5.33
C      25.39      34.59       4.42
C      25.24      33.53       3.50
C      18.97      30.36       6.67
C      18.82      31.28       7.73
C      19.89      32.19       7.56
C      23.01      29.05       1.27
C      22.10      27.98       1.11
C      21.19      28.14       2.18
C      28.73      16.51      30.43
C      27.66      16.69      31.33
C      27.81      15.62      32.25
C      34.09      12.44      29.08
C      34.24      13.36      28.02
C      33.18      14.27      28.20
C      30.03      11.12      34.47
C      30.94      10.05      34.63
C      31.85      10.21      33.56
C       6.65       1.37      12.55
C       7.72       1.19      13.46
C       7.56       2.25      14.38
C       1.28       5.41      11.21
C       1.13       4.49      10.15
C       2.20       3.58      10.32
C       5.34       6.73      16.60
C       4.43       7.80      16.77
C       3.52       7.64      15.70
C      30.04       3.52       4.47
C      30.96       5.38       3.55
C      31.87       4.46       5.41
C       5.36      14.35      22.36
C       4.44      12.49      21.44
C       3.52      13.41      23.30
C      12.37      32.25      13.41
C      13.29      30.40      14.33
C      14.20      31.32      12.47
C      23.03      21.43      31.30
C      21.20      22.37      30.35
C      22.12      23.29      32.21
C      26.37      35.58       4.43
C      27.23       0.68       4.44
C      28.17       1.64       4.45
C      29.04       2.51       4.47
C       9.01      18.09      22.32
C       8.16      17.21      22.33
C       7.21      16.24      22.34
C       6.35      15.37      22.35
C       8.70       0.20      13.45
C       9.56      35.10      13.44
C      10.51      34.14      13.43
C      11.37      33.26      13.42
C      26.68      17.69      31.32
C      25.83      18.57      31.31
C      24.88      19.53      31.31
C      24.03      20.41      31.30
C       0.15       4.47       9.15
C      34.67       4.46       8.27
C      33.73       4.46       7.31
C      32.87       4.46       6.43
C      17.53      22.42      26.63
C      18.39      22.41      27.51
C      19.34      22.39      28.47
C      20.20      22.38      29.34
C      35.22      13.37      27.02
C       0.71      13.38      26.15
C       1.66      13.39      25.19
C       2.52      13.40      24.31
C      17.84      31.29       8.73
C      16.99      31.30       9.61
C      16.05      31.31      10.58
C      15.20      31.31      11.46
C      30.94       9.06      35.62
C      30.94       8.19       0.72
C      30.95       7.24       1.67
C      30.95       6.38       2.55
C      13.28      26.72      18.03
C      13.28      27.58      17.17
C      13.29      28.53      16.21
C      13.29      29.39      15.34
C      22.10      26.99       0.12
C      22.11      26.13      35.02
C      22.11      25.17      34.08
C      22.12      24.30      33.21
C       4.44       8.79      17.75
C       4.44       9.66      18.62
C       4.44      10.61      19.57
C       4.44      11.48      20.44
N      11.21      20.90      21.74
N      11.77      20.35      22.87
N      14.77      21.87      24.38
N      15.34      23.00      23.83
N      13.83      24.49      20.82
N      12.71      23.92      20.25
N      24.17      32.79       3.84
N      23.61      33.34       4.97
N      20.61      31.83       6.48
N      20.04      30.70       5.93
N      21.54      29.21       2.91
N      22.66      29.78       2.35
N      28.88      14.88      31.91
N      29.45      15.43      30.78
N      32.45      13.91      29.27
N      33.02      12.78      29.82
N      31.50      11.29      32.83
N      30.38      11.85      33.40
N       6.50       2.99      14.04
N       5.93       2.44      12.91
N       2.92       3.94      11.40
N       2.35       5.07      11.95
N       3.87       6.57      14.97
N       4.99       6.00      15.53
N      29.98       4.44       3.49
N      31.93       5.44       4.49
N      30.95       3.47       5.46
N       5.41      13.42      21.38
N       3.46      12.43      22.38
N       4.44      14.40      23.35
N      12.31      31.33      14.40
N      14.26      30.33      13.40
N      13.28      32.30      12.42
N      22.11      21.38      30.31
N      21.14      23.35      31.28
N      23.09      22.35      32.28
