68

Zn       8.71       5.53       6.30
Zn       5.86       5.60       6.42
H       9.05       1.29       4.08
H       9.59       9.91       4.07
H      10.55       9.96       5.59
H       3.63       4.35       8.09
H      10.91       4.31       8.01
H      11.04       6.55       3.32
H      10.85       8.00       4.34
H       3.77       6.76       3.46
H       2.37       4.23       2.58
H       3.59       8.17       4.55
H       1.04       4.93       0.61
H       9.55       4.98      10.34
H      11.19       3.97      11.14
H      13.34       3.65      12.26
H       9.12       4.23       2.18
H       4.58       4.15       3.67
C       7.35       8.16       6.26
C       5.64       4.38       0.42
C       5.72       4.42       1.85
C       8.79       4.58      12.34
C       3.18       4.63       0.59
C       3.29       4.37       1.99
C       4.51       4.32       2.60
C       8.67       4.91      10.97
C       6.26       5.18      11.19
C       7.02       4.49       2.45
C       8.42      10.42       5.90
C       7.20       5.00       3.85
C       7.39       9.65       6.42
C       6.37      10.36       7.10
C       6.14       0.71       7.24
C       7.18       1.47       6.65
C       8.16       0.74       5.99
C       9.36       0.89       5.06
C       9.68      10.37       5.06
C       3.10       6.25       5.51
C       3.09       4.91       7.32
C      11.47       4.87       7.28
C       7.20       2.97       6.62
C      11.49       6.19       5.45
C      11.41       7.06       4.21
C       3.21       7.17       4.31
C       7.39       5.53       8.93
C       6.36       4.87      12.54
C       7.45       5.21      10.39
C       8.14       4.22       1.68
C       8.04       3.96       0.31
C      11.24       4.07      12.22
C       4.96       5.49      10.67
C       5.14       1.38       8.00
C      10.55       1.61       5.48
C       5.22       9.71       7.66
N       3.82       5.61       6.42
N      10.75       5.52       6.32
N       3.85       5.71      10.38
N       4.35       1.93       8.66
N      11.53       2.16       5.75
N       4.23       9.31       8.12
O       8.44       7.58       5.95
O       6.22       7.61       6.45
O       8.36       4.89       4.38
O       6.20       5.57       4.41
O       8.33       3.51       6.81
O       6.10       3.53       6.34
O       8.47       5.85       8.34
O       6.25       5.44       8.39
