77

Zn       8.69       8.74       9.15
Zn       8.90       6.53       6.87
Zn       6.41       8.72       6.94
Zn       6.53       6.27       8.93
H       6.63       6.61       0.09
H       9.45      12.93       8.08
H      13.03       5.87       7.49
H      10.34       9.24       1.33
H       9.04      10.45       1.33
H       9.91      11.30      15.09
H      11.16      11.43       0.42
H      11.21      10.09      15.09
H      10.17       2.75       5.47
H      11.38       1.51       5.93
H      12.90       3.37       6.77
H      12.75       9.97       8.74
H      12.54       3.53       5.03
H      11.70       4.56       6.21
H       0.07       4.80       7.24
H      15.23      10.20       8.63
H       2.55       4.97       7.31
H       2.27       9.19       8.14
H       6.01       2.20       8.20
H      10.56      15.16       7.75
H       5.13      12.72       8.24
C       7.97       3.94       7.82
C       8.42      14.84       8.01
C       7.03       0.28       8.10
C       7.39      11.20       8.16
C       6.97       1.69       8.07
C       9.37       1.80       7.70
C       9.46       0.42       7.81
C      12.75       7.91       8.09
C       2.54       7.10       7.72
C       0.55       5.75       7.46
C       1.93       5.85       7.49
C       7.35       7.29      14.13
C       1.78       8.23       7.97
C       0.37       8.14       8.03
C      14.93       6.89       7.74
C      11.27       7.79       8.09
C      13.52       6.81       7.74
C      13.37       9.14       8.44
C      14.74       9.25       8.39
C       4.03       7.22       7.73
C       7.81       7.88       4.45
C       7.42       7.43      11.49
C       7.98       8.06       1.80
C       7.90       8.00       3.01
C       8.07       8.13       0.39
C       7.31       7.23      15.52
C       9.71       9.87       0.69
C      10.55      10.68      15.73
C      11.01       2.52       6.16
C      12.10       3.56       6.04
C       7.37       7.35      12.91
C       8.11       2.45       7.86
C       7.32      12.69       8.18
C       5.99      14.68       8.20
C       6.04      13.31       8.20
C       8.48      13.43       8.10
O       7.64       7.57       7.95
O       8.66       7.10       4.98
O       6.60       6.69      10.84
O       6.90       8.57       5.02
O       8.27       8.25      10.99
O       8.92       8.93      15.75
O      10.51       2.55       7.52
O      10.62       8.64       8.79
O       4.68       6.24       8.23
O       8.63       4.58       6.94
O       6.46      10.59       7.52
O       7.17       4.43       8.68
O       8.37      10.65       8.77
O      10.76       6.85       7.39
O       4.53       8.29       7.24
F       4.66       0.08       8.28
