330

Cu      18.62      15.38       1.00
Cu      22.62       8.44       0.99
Cu      14.61       8.44       0.99
Cu       9.31       0.75      13.01
Cu       5.30       7.69      13.02
Cu      13.32       7.69      13.02
Cu       9.31       0.75      23.00
Cu      13.32       7.69      22.99
Cu       5.30       7.69      22.99
Cu      18.62      15.38      11.00
Cu      14.61       8.44      11.01
Cu      22.62       8.44      11.01
H      17.85      14.70       3.45
H      21.16      13.72      18.83
H      21.94      15.16      20.69
H      22.42       9.45       3.45
H      19.92       7.05      18.83
H      20.78       5.66      20.69
H      15.59       8.11       3.45
H      14.77      11.47      18.83
H      13.14      11.43      20.69
H      10.08       1.42      15.46
H       6.79       2.42       6.83
H       6.00       0.98       8.69
H       5.49       6.68      15.47
H       8.00       9.03       6.83
H       7.15      10.43       8.70
H      12.35       8.02      15.47
H      13.13       4.68       6.83
H      14.77       4.71       8.69
H       8.54       1.42      20.54
H      11.83       2.42       5.18
H      12.62       0.98       3.31
H      13.13       6.68      20.54
H      10.62       9.03       5.18
H      11.47      10.43       3.31
H       6.27       8.02      20.54
H       5.48       4.68       5.18
H       3.85       4.71       3.31
H      19.39      14.70       8.55
H      16.08      13.72      17.18
H      15.30      15.16      15.32
H      14.82       9.45       8.55
H      17.32       7.05      17.18
H      16.46       5.66      15.32
H      21.65       8.11       8.55
H      22.47      11.47      17.18
H      24.10      11.43      15.32
H      10.08       1.42      20.54
H       6.79       2.42       5.18
H       6.00       0.98       3.31
H       5.49       6.68      20.54
H       8.00       9.03       5.18
H       7.15      10.43       3.31
H      12.35       8.02      20.54
H      13.13       4.68       5.18
H      14.77       4.71       3.31
H      17.85      14.70       8.55
H      21.16      13.72      17.18
H      21.94      15.16      15.32
H      22.42       9.45       8.55
H      19.92       7.05      17.18
H      20.78       5.66      15.32
H      15.59       8.11       8.55
H      14.77      11.47      17.18
H      13.14      11.43      15.32
H      19.39      14.70       3.45
H      16.08      13.72      18.83
H      15.30      15.16      20.69
H      14.82       9.45       3.45
H      17.32       7.05      18.83
H      16.46       5.66      20.69
H      21.65       8.11       3.45
H      22.47      11.47      18.83
H      24.10      11.43      20.69
H       8.54       1.42      15.46
H      11.83       2.42       6.83
H      12.62       0.98       8.69
H      13.13       6.68      15.47
H      10.62       9.03       6.83
H      11.47      10.43       8.69
H       6.27       8.02      15.47
H       5.48       4.68       6.83
H       3.85       4.71       8.69
H       8.24      13.93      18.00
H      17.25       2.02      18.00
H       2.45       0.18      18.00
H      19.71       2.22       6.00
H      10.68      14.07       6.00
H      25.47      15.96       6.00
H      17.53       2.22       6.00
H      26.56      14.07       6.00
H      11.77      15.96       6.00
H      10.38      13.93      18.00
H       1.37       2.02      18.00
H      16.17       0.18      18.00
H      21.20      12.24      23.77
H      18.62       7.76      23.77
H      16.04      12.24      23.77
H       6.74       3.89      11.78
H       9.31       8.35      11.79
H      11.88       3.89      11.78
H      11.88       3.89       0.22
H       9.31       8.35       0.22
H       6.74       3.89       0.22
H      16.04      12.24      12.23
H      18.62       7.76      12.24
H      21.20      12.24      12.23
C      20.43      14.68      22.91
C      21.46      13.79      22.29
C      22.14      14.18      21.13
C      21.12       7.22      22.90
C      19.83       6.77      22.28
C      19.83       5.98      21.13
C      14.32      10.35      22.90
C      14.57      11.69      22.29
C      13.89      12.08      21.13
C       7.51       1.45      10.91
C       6.48       2.35      10.29
C       5.81       1.96       9.13
C       6.81       8.90      10.92
C       8.10       9.33      10.29
C       8.10      10.11       9.13
C      13.61       5.78      10.91
C      13.35       4.44      10.29
C      14.02       4.05       9.13
C      11.11       1.45       1.09
C      12.14       2.35       1.71
C      12.81       1.96       2.87
C      11.81       8.90       1.09
C      10.52       9.33       1.71
C      10.52      10.11       2.87
C       5.01       5.78       1.09
C       5.27       4.44       1.71
C       4.60       4.05       2.87
C      16.81      14.68      13.10
C      15.78      13.79      13.72
C      15.10      14.18      14.88
C      16.12       7.22      13.11
C      17.41       6.77      13.72
C      17.41       5.98      14.88
C      22.92      10.35      13.11
C      22.67      11.69      13.72
C      23.35      12.08      14.88
C       7.51       1.45       1.09
C       6.48       2.35       1.71
C       5.81       1.96       2.87
C       6.81       8.90       1.09
C       8.10       9.33       1.71
C       8.10      10.11       2.87
C      13.61       5.78       1.09
C      13.35       4.44       1.71
C      14.02       4.05       2.87
C      20.43      14.68      13.10
C      21.46      13.79      13.72
C      22.14      14.18      14.88
C      21.12       7.22      13.11
C      19.83       6.77      13.72
C      19.83       5.98      14.88
C      14.32      10.35      13.11
C      14.57      11.69      13.72
C      13.89      12.08      14.88
C      16.81      14.68      22.91
C      15.78      13.79      22.29
C      15.10      14.18      21.13
C      16.12       7.22      22.90
C      17.41       6.77      22.28
C      17.41       5.98      21.13
C      22.92      10.35      22.90
C      22.67      11.69      22.29
C      23.35      12.08      21.13
C      11.11       1.45      10.91
C      12.14       2.35      10.29
C      12.81       1.96       9.13
C      11.81       8.90      10.92
C      10.52       9.33      10.29
C      10.52      10.11       9.13
C       5.01       5.78      10.91
C       5.27       4.44      10.29
C       4.60       4.05       9.13
C      25.77      14.03      18.00
C      17.88       2.91      18.00
C      12.21      15.31      18.00
C       2.18       2.12       6.00
C      10.05      13.17       6.00
C      15.70       0.83       6.00
C      16.44       2.12       6.00
C       8.57      13.17       6.00
C       2.92       0.83       6.00
C      11.47      14.03      18.00
C      19.36       2.91      18.00
C      25.03      15.31      18.00
C      21.73      12.55      22.87
C      23.07      13.32      20.54
C      23.75      13.72      19.26
C      18.62       7.15      22.87
C      18.62       5.60      20.54
C      18.62       4.81      19.26
C      15.51      12.55      22.87
C      14.17      13.32      20.54
C      13.49      13.72      19.26
C       6.21       3.59      10.88
C       4.88       2.82       8.54
C       4.20       2.43       7.26
C       9.31       8.95      10.88
C       9.31      10.49       8.54
C       9.31      11.27       7.26
C      12.41       3.59      10.88
C      13.74       2.82       8.54
C      14.42       2.43       7.26
C      12.41       3.59       1.13
C      13.74       2.82       3.46
C      14.42       2.43       4.75
C       9.31       8.95       1.12
C       9.31      10.49       3.46
C       9.31      11.27       4.75
C       6.21       3.59       1.13
C       4.87       2.82       3.46
C       4.20       2.43       4.75
C      15.51      12.55      13.14
C      14.17      13.32      15.47
C      13.49      13.72      16.75
C      18.62       7.15      13.14
C      18.62       5.60      15.47
C      18.62       4.82      16.75
C      21.73      12.55      13.14
C      23.07      13.32      15.47
C      23.75      13.72      16.75
C      22.99      13.28      18.00
C      18.62       5.70      18.00
C      14.25      13.28      18.00
C       4.96       2.87       6.00
C       9.31      10.39       6.00
C      13.66       2.87       6.00
N      25.19      13.61      19.34
N      17.80       3.62      19.34
N      12.87      15.02      19.34
N       2.76       2.54       7.34
N      10.13      12.46       7.34
N      15.04       1.12       7.34
N      15.86       2.54       4.67
N       8.49      12.46       4.67
N       3.57       1.12       4.67
N      12.05      13.61      16.67
N      19.44       3.62      16.67
N      24.37      15.02      16.67
N       2.76       2.54       4.67
N      10.13      12.46       4.67
N      15.04       1.12       4.67
N      25.19      13.61      16.67
N      17.80       3.62      16.67
N      12.87      15.02      16.67
N      12.05      13.61      19.34
N      19.44       3.62      19.34
N      24.37      15.02      19.34
N      15.86       2.54       7.34
N       8.49      12.46       7.34
N       3.57       1.12       7.34
N      21.70      13.98      18.00
N      19.88       6.45      18.00
N      14.28      11.81      18.00
N       6.25       2.16       6.00
N       8.05       9.63       6.00
N      13.63       4.33       6.00
N      12.37       2.16       6.00
N      10.57       9.63       6.00
N       4.99       4.33       6.00
N      15.54      13.98      18.00
N      17.36       6.45      18.00
N      22.96      11.81      18.00
O      20.02      14.35       0.06
O      20.03      15.68      22.22
O      21.04       7.74       0.06
O      22.18       7.06      22.22
O      14.80      10.16       0.06
O      13.65       9.50      22.22
O       7.91       1.78      12.08
O       7.90       0.45      10.23
O       6.89       8.39      12.08
O       5.74       9.06      10.23
O      13.13       5.97      12.08
O      14.28       6.62      10.23
O      10.71       1.78      23.93
O      10.72       0.45       1.77
O      11.73       8.39      23.93
O      12.88       9.06       1.77
O       5.49       5.97      23.93
O       4.34       6.62       1.77
O      17.22      14.35      11.94
O      17.21      15.68      13.79
O      16.20       7.74      11.95
O      15.05       7.06      13.79
O      22.44      10.16      11.94
O      23.59       9.50      13.79
O       7.91       1.78      23.93
O       7.90       0.45       1.77
O       6.89       8.39      23.93
O       5.74       9.06       1.77
O      13.13       5.97      23.93
O      14.28       6.62       1.77
O      20.02      14.35      11.94
O      20.03      15.68      13.79
O      21.04       7.74      11.95
O      22.18       7.06      13.79
O      14.80      10.16      11.94
O      13.65       9.50      13.79
O      17.22      14.35       0.06
O      17.21      15.68      22.22
O      16.20       7.74       0.06
O      15.05       7.06      22.22
O      22.44      10.16       0.06
O      23.59       9.50      22.22
O      10.71       1.78      12.08
O      10.72       0.45      10.23
O      11.73       8.39      12.08
O      12.88       9.06      10.23
O       5.49       5.97      12.08
O       4.34       6.62      10.23
O      18.62      14.28       3.04
O      21.67       8.99       3.03
O      15.57       8.99       3.03
O       9.31       1.84      15.05
O       6.25       7.14      15.05
O      12.37       7.14      15.05
O       9.31       1.84      20.96
O      12.37       7.14      20.96
O       6.25       7.14      20.96
O      18.62      14.28       8.96
O      15.57       8.99       8.97
O      21.67       8.99       8.97
