174

Zn       9.17       1.61       9.76
Zn       0.01       7.57       7.51
Zn       1.61       9.18       9.76
Zn       7.57      -0.00       7.50
Zn       9.18      -1.60       9.76
Zn       0.00      10.78       7.50
Zn      -1.60       9.18       9.76
Zn      10.78       0.00       7.51
H      11.95       4.67      10.33
H      11.83      -4.70      10.21
H       4.48      -2.66       7.06
H       4.70      11.84      10.20
H       2.66       4.48       7.07
H       6.52       4.70      10.20
H      13.88       2.66       7.06
H      -4.70       6.52      10.21
H      -2.77       4.51       6.93
H       4.69       6.41      10.33
H       4.49       2.77       6.94
H       6.41      -4.68      10.33
H       2.77      13.86       6.93
H      -4.67      11.95      10.33
H      13.85      -2.77       6.93
H      -2.66      13.88       7.06
H      14.97       8.10       3.48
H      -2.43       8.42       4.98
H      15.28       6.78       4.65
H      11.61       0.75      12.29
H      -5.79       1.08      13.78
H      -6.10       2.40      12.62
H       8.09       3.38       3.49
H       8.41       2.43       4.98
H       6.76       3.06       4.65
H       0.77       6.75      12.29
H       1.09       5.80      13.78
H       2.42       6.12      12.62
H       3.39      10.24       3.49
H       2.44       9.92       4.98
H       3.08      11.56       4.65
H       6.74      -0.74      12.29
H       5.79      -1.06      13.78
H       6.10      -2.38      12.61
H      10.26      14.98       3.48
H       9.94      -2.43       4.98
H      11.59      15.30       4.65
H      -0.76      11.61      12.29
H      -1.09      -5.80      13.78
H      -2.41      -6.12      12.62
C      -0.75       8.22       2.85
C       9.93       0.96      14.42
C      -0.97      -8.41      15.84
C      17.58       8.20       1.43
C      -8.40       0.98      15.84
C       8.20       0.77       1.43
C       0.98       8.41      15.84
C       0.78      10.14       1.43
C       8.40      -0.96      15.84
C      10.15      17.59       1.43
C       8.22       0.76       2.85
C      -3.64       5.62       8.56
C      12.82       3.56       8.71
C       5.61       3.64       8.56
C       3.57       5.53       8.71
C       3.65      12.74       8.56
C       5.53      -3.56       8.71
C      12.74      -3.64       8.56
C       0.96       8.42      14.42
C      -3.56      12.82       8.71
C       0.00       9.17       0.71
C       0.76      10.12       2.85
C       9.18       0.01      16.55
C       9.17       0.00       0.71
C       0.01       9.18      16.55
C       2.38      12.08       1.35
C       6.80      -2.90      15.92
C      12.10      16.00       1.34
C       8.41      -0.94      14.42
C      -2.92      -6.81      15.92
C      15.97       6.27       1.34
C      -6.79       2.91      15.93
C       6.26       2.36       1.34
C       2.92       6.82      15.92
C      10.13      -0.75       2.85
C      15.69       7.68       4.20
C      -6.51       1.50      13.07
C       7.67       2.65       4.20
C       1.51       6.53      13.07
C       2.67      10.66       4.20
C       6.51      -1.48      13.07
C      10.68      15.70       4.20
C      -0.95       9.93      14.42
C      -1.50      -6.52      13.07
C       0.01       9.17       3.55
C       9.17       0.01      13.72
C       9.18       0.00       3.55
C       0.00       9.18      13.72
C       1.55      11.11       0.70
C       7.62      -1.93      16.57
C      11.12      16.81       0.70
C      -1.94      -7.63      16.57
C      16.80       7.24       0.70
C      -7.62       1.94      16.57
C       7.23       1.54       0.70
C       1.95       7.64      16.57
C       9.17       0.00       5.05
C       0.01       9.18      12.21
C       0.01       9.17       5.05
C       9.17       0.01      12.21
C       6.70       2.62       8.50
C       2.48       6.56       8.76
C       2.63      11.66       8.51
C       6.55      -2.48       8.76
C      11.65      -2.62       8.51
C      -2.47      11.80       8.76
C      -2.62       6.70       8.51
C      11.80       2.48       8.76
C      12.75       4.65       9.60
C      -3.57       4.53       7.67
C       4.65       5.61       9.59
C       4.53       3.57       7.67
C       5.61      -4.65       9.60
C       3.57      13.83       7.67
C      -4.64      12.75       9.60
C      13.82      -3.57       7.67
C      -3.50      13.84       7.75
C      12.68      -4.66       9.52
C       4.51      -3.51       7.75
C       4.67      12.69       9.52
C       3.51       4.51       7.75
C       5.67       4.67       9.52
C      13.84       3.51       7.74
C      -4.66       5.67       9.52
N       3.11      12.89       1.75
N       6.07      -3.71      15.52
N      12.92      15.27       1.75
N      -3.74      -6.09      15.51
N      15.24       5.46       1.75
N      -6.06       3.73      15.52
N       5.44       3.09       1.75
N       3.74       6.09      15.52
O       9.18       0.00       8.63
O       1.10       9.49      11.65
O      -0.30      10.27       5.62
O       9.48      -1.09      11.65
O      10.27       0.32       5.62
O      -1.09       8.86      11.64
O       0.31       8.08       5.62
O       8.87       1.10      11.65
O       8.08      -0.31       5.62
O       0.00       9.18       8.63
O       6.56       1.67       7.66
O       2.62       7.51       9.61
O       1.68      11.79       7.66
O       7.50      -2.61       9.61
O      11.78      -1.67       7.66
O      -2.61      10.85       9.61
O      -1.67       6.57       7.66
O      10.85       2.61       9.60
O       2.78      10.68       9.32
O       6.40      -1.50       7.95
O       7.67       2.78       9.31
O       1.51       6.40       7.96
O      -2.78       7.68       9.32
O      11.96       1.50       7.95
O      10.68      -2.77       9.32
O      -1.50      11.95       7.95
O      -1.46       7.27       3.51
O      10.64       1.91      13.76
O       7.26       1.46       3.51
O       1.92       7.72      13.76
O       1.47      11.07       3.51
O       7.71      -1.89      13.76
O      11.09      -1.45       3.51
O      -1.91      10.63      13.76
