102

Zn       8.60       7.73       2.10
Zn       6.07       9.84       2.10
Zn      -0.68       1.75      14.07
Zn       1.83      -0.34      14.07
H      11.85       6.98       2.61
H      13.34      -2.82       5.86
H      -5.16      12.63       5.87
H       9.91      13.26       7.19
H      11.26      12.12       7.19
H      14.13      -3.85       9.03
H      -6.31      13.22       9.02
H       4.76      12.90       2.61
H      -1.93       4.80      13.55
H       5.04      -1.03      13.55
H       4.23       1.70      13.37
H       0.90       4.48      13.37
H       7.65      12.55       2.68
H      10.98       9.77       2.68
H       8.21       6.45       5.19
H       4.88       9.23       5.19
H      -2.21       0.75      11.28
H       1.11      -2.03      11.29
H       0.24      -3.09      13.53
H      -3.10      -0.29      13.53
H       3.57       7.84       2.61
H       7.07       4.91       2.61
H      -2.74      -1.39       6.68
H      14.77      -2.46       4.88
H      -0.90      -2.94       6.68
H      -5.05      14.09       4.88
C      11.59       7.02       1.56
C       7.12       5.17       1.55
C       9.67      11.57       3.00
C       7.46       7.21       4.97
C       5.76       8.63       4.97
C      -1.29       0.19      11.47
C       0.41      -1.22      11.47
C       3.82       7.93       1.55
C       6.37       7.63       5.76
C      -0.83      -0.98      10.85
C       6.91       4.35       0.43
C       3.05       7.58       0.42
C       4.84      12.66       1.56
C      14.43      -2.91       5.82
C      -5.44      13.69       5.82
C      -4.83      14.45       7.01
C      15.07      -2.18       7.01
C      -1.47      -1.75       9.86
C      11.52      13.80       5.85
C      -2.65      -3.17       7.93
C      -1.89       4.56      14.60
C       4.80      -1.03      14.61
C      -3.60      -4.30       8.40
C      11.00      13.19       7.18
C      -2.04      -2.43       9.02
C      10.93      13.10       4.72
C      10.39      12.44       3.85
C       4.31      14.86       0.42
C       0.32      -2.88      14.59
C      13.85       6.89       0.42
C       4.06      16.07       0.40
C      15.08       6.85       0.40
C       3.81      17.38       0.38
C      16.42       6.84       0.38
C      -2.91      -0.18      14.59
C       6.91       0.39       0.37
C      -0.84       6.87       0.37
C       6.79       1.72       0.38
C       0.49       6.98       0.38
C       3.28       2.21      13.48
C       1.58       3.64      13.48
C       6.75       2.96       0.40
C       1.71       7.17       0.40
C       5.97       7.16       7.01
C       5.60       6.71       8.10
C       5.16       6.19       9.26
C       4.72       5.67      10.29
C       4.19       5.03      11.34
C       3.64       4.37      12.22
C       8.33      11.70       2.57
C      10.03      10.28       2.57
C      12.46       6.98       0.44
C       4.65      13.50       0.44
C       2.92       3.51      13.06
N      10.32       7.13       1.15
N       1.18       2.50      14.07
N       2.23       1.62      14.07
N       7.93      10.56       1.97
N       8.98       9.69       1.97
N       7.50       7.90       3.82
N       6.44       8.79       3.82
N       5.18      11.43       1.15
N      -0.40       0.61      12.39
N       0.65      -0.27      12.39
N       0.65      -1.65      15.05
N      -1.76       0.36      15.05
N       4.99       8.46       1.14
N       7.44       6.41       1.14
N      -1.57       3.33      15.03
N       3.53      -0.94      15.04
Cl      -3.72      13.39       7.96
Cl      13.82      -1.28       7.96
