117

Al       9.45       5.62      13.65
Al      11.08       8.36      13.29
Al      12.63       5.78      13.26
Al      20.79      12.23      26.13
Al      17.61      12.18      26.58
Al      19.08       9.56      26.63
H      15.25      10.96      18.25
H       7.24       9.91       5.19
H       5.39       6.12       6.07
H       6.16       6.31       8.44
H      15.84      11.31      20.64
H      15.08       7.14      21.45
H       9.57       0.84       8.46
H      15.29      11.13       6.10
H      11.08       3.75       4.71
H      11.60       4.38       7.06
H      14.49       6.79      19.06
H       2.71       1.37       9.69
H       2.40       2.27       8.19
H      13.76       2.41       9.56
H      12.78       0.89       7.82
H      19.35      10.92       9.31
H       9.05      10.14       8.33
H       8.65      10.97       6.81
H       7.74       4.49      14.78
H       3.97       2.61      26.54
C       9.47       8.00      15.54
C      15.12       7.97      20.74
C      14.79       7.77      19.41
C      14.83       8.85      18.49
C      15.50       9.25      21.20
C      15.86       9.46      22.55
C      14.46       8.64      17.14
C      16.19       9.66      23.71
C      12.20       3.01      23.05
C      12.08       3.22      21.84
C      11.98       3.41      20.52
C      13.47       8.04      14.77
C      11.93       3.55      19.30
C      11.86       3.73      17.97
C      11.80       3.93      16.76
C       8.66       9.22      23.18
C       8.80       9.02      21.98
C       8.92       8.84      20.66
C       9.00       8.70      19.44
C       9.11       8.54      18.11
C       9.21       8.37      16.90
C      13.22       7.84       3.35
C      11.61       4.38      15.41
C      13.16       7.82       4.58
C      13.14       7.82       5.92
C      13.14       7.83       7.15
C      13.13       7.83       8.50
C      13.10       7.82       9.72
C      11.03       3.44      10.39
C       9.90       1.47       7.63
C       9.61       1.12       6.32
C      10.76       3.12       5.53
C      11.04       3.47       6.84
C       8.82       7.91      11.79
C      10.61       2.65       7.91
C      10.03       1.94       5.25
C       9.72       1.59       3.92
C      10.85       3.05       9.25
C       9.46       1.27       2.77
C       8.11       8.19      10.58
C       7.45       9.26       7.23
C       7.01       9.13       5.91
C       5.96       6.99       6.41
C       6.38       7.09       7.72
C      12.85       7.67      11.13
C       7.13       8.21       8.14
C       6.28       8.00       5.48
C       5.90       7.90       4.13
C       7.63       8.24       9.46
C       5.57       7.84       2.95
C      12.46       2.55      24.38
C      16.79      10.02      24.96
C       8.34       9.67      24.51
C       9.26       0.68       1.47
C      13.54       7.99       1.96
C      11.11       4.12      11.65
C       5.07       7.98       1.62
C      14.11       8.43      15.99
C      15.21      10.13      18.95
C      15.54      10.33      20.28
C       8.22      10.46       7.69
C       7.35      11.46       8.47
C       1.92       1.71       9.01
O      10.42       4.54      15.03
O      12.11       8.56      11.68
O      13.33       6.63      11.70
O      12.29       4.36      12.12
O      11.08       6.60      13.41
O       8.76      10.81      24.85
O      13.64       2.18      24.62
O      11.47       2.50      25.20
O      16.52      11.19      25.41
O      17.58       9.18      25.51
O       7.61       8.88      25.22
O       9.07       6.86      15.17
O       5.36       9.05       1.01
O      10.28       0.47       0.76
O       8.05       0.35       1.18
O      13.13       9.05       1.37
O      14.28       7.09       1.45
O       4.31       7.04       1.16
O      19.14      11.31      26.46
O      10.14       8.84      14.83
O      12.61       8.85      14.27
O      13.75       6.88      14.31
O      12.68       4.64      14.74
O      10.02       4.46      12.18
O       8.63       6.78      12.32
O       9.65       8.81      12.21
O       7.96       4.73      13.87
O       3.57       2.14      25.79
