170

Zn       3.87       7.86       8.72
Zn      -2.00      27.70       9.34
Zn      19.94      29.07      11.48
Zn      18.69      28.03       8.72
Zn      19.94       9.63       0.84
Zn       3.87      23.39      17.22
Zn      18.69      12.51       0.23
Zn      -2.00      12.17       0.84
H      23.23       6.51       5.70
H       0.59      10.98       3.86
H      21.85       7.51       3.86
H       1.96       9.97       5.70
H      21.85      27.67      14.89
H       1.96      24.79      13.81
H      23.23      26.66      16.73
H       0.59      25.80      11.97
H      26.92      15.77      17.26
H       4.02      17.81      13.54
H      26.92      11.93      15.16
H       4.02      13.96      11.43
H      -1.44      17.97       4.11
H      18.12      18.39       3.35
H      -1.44      21.82       6.22
H      18.12      22.24       5.45
H      14.58       7.35       4.11
H      12.90      11.29       3.35
H      10.91       6.20       6.22
H       9.23      10.13       5.45
H       9.23      24.92      13.54
H      10.91      26.39      17.26
H      12.90      26.07      11.43
H      14.58      27.54      15.16
H      26.91      18.81      19.02
H       4.03      20.93      15.15
H      26.91       8.81      13.55
H       4.03      10.92       9.68
H      -1.36      14.88       2.44
H      18.04      15.32       1.65
H      -1.36      24.89       7.92
H      18.04      25.32       7.12
H      17.55       8.20       2.45
H      15.81      12.28       1.65
H       8.00       5.20       7.92
H       6.26       9.29       7.12
H       6.26      23.97      15.15
H       8.00      25.49      19.02
H      15.81      26.96       9.68
H      17.55      28.49      13.55
C       6.63       7.09       7.81
C      22.23      27.39      12.23
C      27.38       9.34      11.32
C      17.18      27.88      11.32
C       1.58       7.58       6.90
C      20.25      25.63       7.81
C      27.38      20.40      17.38
C       1.58      25.07      16.47
C      17.18      10.40       1.76
C      20.25      14.57       1.76
C      22.23       9.90       2.67
C       6.63      24.57      17.38
C       0.76       8.18       5.81
C      -0.76       9.30       3.76
C      23.47       7.48       5.29
C       0.34      10.00       4.27
C      22.71       8.04       4.27
C       1.10       9.44       5.29
C      -0.76      26.79      13.33
C       0.76      25.67      15.37
C      22.71      27.04      14.67
C       1.10      25.42      14.03
C      23.47      26.48      15.69
C       0.34      25.98      13.01
C      27.38      19.13      16.68
C      27.12      17.90      17.38
C      27.12      16.68      16.70
C      27.38      16.65      15.32
C       3.82      17.83      14.61
C       3.82      19.06      15.27
C      27.38      15.40      14.64
C      27.38      14.33      14.06
C      27.38      13.09      13.38
C      27.12      11.91      14.09
C      27.12      10.68      13.43
C      27.38      10.61      12.02
C       3.82      11.84      11.32
C       3.82      13.05      11.99
C      -3.56      15.84       2.45
C      -2.36      16.37       3.03
C      -2.37      17.60       3.69
C      -3.56      18.33       3.81
C      19.05      17.83       3.26
C      19.04      16.61       2.59
C      -3.56      19.57       4.49
C      20.25      20.64       5.08
C      20.25      21.88       5.76
C      -2.37      22.37       6.31
C      -2.36      23.59       6.98
C      20.25      24.36       7.11
C      19.04      23.83       6.54
C      19.05      22.61       5.87
C      15.97      10.02       2.45
C      15.83       8.71       3.03
C      14.66       8.35       3.69
C      13.60       9.28       3.81
C      13.71      10.56       3.26
C      14.88      10.94       2.59
C      12.42       8.90       4.49
C      11.40       8.58       5.08
C      10.21       8.21       5.76
C      10.10       6.92       6.31
C       8.94       6.55       6.98
C       7.84       7.47       7.11
C       7.99       8.78       6.54
C       9.16       9.13       5.87
C       7.84      24.95      16.68
C       7.99      24.73      15.27
C       9.16      25.10      14.61
C      10.21      25.70      15.32
C      10.10      25.93      16.70
C       8.94      25.56      17.38
C      11.40      26.07      14.64
C      12.42      26.39      14.06
C      13.60      26.76      13.38
C      13.71      26.53      11.99
C      14.88      26.89      11.32
C      15.97      27.50      12.02
C      15.83      27.73      13.43
C      14.66      27.36      14.09
O      20.25      28.85       9.57
O       5.66       7.95       7.91
O      -1.22      27.13      11.03
O      27.14       8.25      11.99
O       6.54       5.89       8.31
O       3.80       9.32      10.05
O      21.24      28.12      12.58
O      18.15      28.44      11.99
O      25.04       6.43       7.33
O      17.27      27.66      10.05
O       2.57       8.27       7.33
O      -2.45      26.08       8.31
O      19.14      26.30       7.91
O      -3.56      11.36       0.00
O      27.14      20.42      18.65
O       2.57      24.34      16.12
O      17.27      11.59       1.25
O       3.80      21.49      16.70
O      18.15       9.54       1.65
O      25.04      25.33      17.67
O      19.14      14.13       1.25
O      -1.22      11.05       2.24
O      -2.45      13.91       1.65
O      21.24       9.22       2.24
O       5.66      24.02      16.70
O       6.54      24.79      18.65
O      26.87      17.87      18.71
O       4.07      20.16      14.53
O      26.87       9.58      14.17
O       4.07      11.87       9.99
O      -1.18      15.72       2.95
O      17.87      16.20       2.08
O      -1.18      24.01       7.48
O      17.87      24.48       6.62
O      16.80       7.78       2.95
O      14.92      12.19       2.08
O       8.89       5.30       7.48
O       7.01       9.71       6.62
O       7.01      24.17      14.53
O       8.89      25.81      18.71
O      14.92      26.65       9.99
O      16.80      28.29      14.17
