156

Zn       7.61      11.54       8.77
Zn      -1.77      -2.25       8.70
Zn      -1.80      -4.94      10.52
Zn       7.68      14.25       6.90
H       6.77       8.90      10.75
H       3.67      -4.64      11.95
H       5.81      -5.56      12.76
H      -2.05       0.99       8.11
H       8.28      -5.58      12.67
H      10.36      -4.72      11.64
H      10.30      -1.09       9.31
H       8.18       0.16       9.01
H       5.71       0.19       9.12
H      -5.19       9.27       8.23
H      10.45       8.09       5.73
H       1.39      -1.28       9.22
H      10.45       5.88       4.63
H      11.37       3.59       4.48
H      12.98       1.89       5.31
H      -3.60      -3.92      13.01
H      -2.63       3.11       7.77
H      -2.32       5.47       8.37
H      -3.25       7.76       8.53
H       3.71      12.54       3.37
H      -4.94      -2.75      14.63
H      -3.71       0.91      12.71
H      -6.41      11.13       8.96
H      -4.05       2.10      17.17
H       2.96       7.64       3.22
H      -5.13      -1.58      16.77
H       4.33       8.60       5.02
H      12.41      -1.65       8.43
H       1.91       7.79       1.12
H       2.37      11.58       1.57
H      -3.93       2.09      14.86
H      -8.75       8.45      14.16
H      10.88      12.08       2.88
H       9.34      12.85       4.47
H      -4.94      14.23       4.93
H      -3.65      14.39       0.44
H       5.97       5.89      14.52
H      12.12      12.26       0.78
H       6.25       7.51      12.69
H      -3.61      -0.31      10.61
H       6.54       5.06      16.58
H      -9.05       6.87      16.00
H      -3.69      14.40       2.82
H      12.44      -5.20      10.92
H      -6.29      14.23       6.91
H      13.59      -0.37       5.68
H      -8.90      10.52      13.06
H       5.44       9.71       6.92
H       9.16       9.73       6.63
H       5.68      13.23       4.42
H       1.37      -4.85      11.67
H       3.60      -0.99       9.65
C       7.59       9.47      11.17
C       9.86      10.23       7.29
C       5.76      12.47       5.19
C      -2.81       0.44       7.56
C       1.16      -4.00      11.03
C       5.12      11.22       5.27
C       2.01      -2.98      10.57
C      -7.72       9.97       7.52
C      -7.53      13.39       5.21
C       4.15      -1.76      10.19
C       3.46      -2.84      10.77
C      -3.87       0.93       6.77
C       4.19      -3.81      11.48
C       5.58      -3.76      11.56
C       6.29      -2.71      10.90
C      -3.51      -3.15      12.26
C       5.55      -1.68      10.24
C       6.35      -4.78      12.23
C       7.72      -4.78      12.17
C       8.44      -3.78      11.44
C       7.70      -2.72      10.84
C       8.40      -1.71      10.11
C      -3.85      -1.78      12.32
C       7.64      -0.63       9.53
C       6.28      -0.62       9.59
C       9.82      -3.87      11.22
C      10.50      -2.94      10.41
C      12.60      -2.58       8.95
C       9.79      -1.84       9.92
C      -5.67       8.55       7.58
C      -6.95       8.82       7.05
C      11.42       7.88       6.18
C      12.01       6.64       5.94
C      11.86      -3.24       9.95
C      -5.69       6.32       6.57
C      -5.04       7.32       7.36
C      11.38       5.62       5.14
C      11.89       4.36       5.07
C      13.08       3.99       5.77
C      -3.50      -1.30      11.04
C      -5.16       5.01       6.49
C      -3.96       4.68       7.18
C      -3.26       5.72       7.88
C      -3.78       6.98       7.97
C       5.65      10.66       6.45
C      13.55       2.67       5.83
C      -4.26       2.32       6.57
C      -3.53       3.35       7.20
C       4.18      10.64       4.31
C       3.57      11.46       3.33
C       2.80      10.91       2.31
C      12.62      -4.39      10.22
C       2.61       9.52       2.21
C       3.12       8.72       3.25
C       3.90       9.27       4.27
C       1.16      -2.18       9.78
C      -4.81      -1.02      15.88
C      -4.70      -1.69      14.67
C      -4.04       0.36      13.59
C      -4.16       1.03      14.80
C      -4.47       0.34      16.00
C       2.04       8.87       1.03
C      -4.25       1.02      17.26
C      14.46      -0.25       6.32
C      -4.24      -1.03      13.51
C       8.23       8.15      13.31
C      -7.37      10.93       8.49
C      -9.70       7.90      14.25
C      -9.86       7.00      15.28
C       7.88       6.28      15.44
C       6.90       6.45      14.44
C       7.06       7.37      13.40
C      12.53      12.71       1.68
C      11.83      12.61       2.87
C      -5.36      13.79       4.02
C      -9.68      10.28      12.34
C      -4.65      13.89       2.83
C      10.01      13.24       5.23
C      -5.20      13.44       1.61
C       7.53       5.51      16.62
C      -4.62      13.90       0.36
C      -6.65      13.22       4.06
C       8.36       9.21      12.32
C      -7.25      13.95       6.47
N       8.02      10.59      10.55
N      -2.98      -3.43      11.05
N      13.69      -3.31       8.64
N      -2.97      -2.30      10.30
N      13.70      -4.42       9.42
N      15.09      -1.34       6.80
N      -9.88      11.09      11.28
N       6.53      11.52       7.02
N      -0.08      -2.68       9.78
N      -8.44      11.67       8.81
N       9.52      13.70       6.39
N      -8.39      14.14       7.16
N       9.45      11.24       8.08
N       6.59      12.64       6.23
N      -0.09      -3.81      10.56
N      -2.81      -0.90       7.57
