127

Al       8.31       5.65      13.73
Al      11.47       5.88      13.22
Al       9.87       8.43      13.32
Al      18.91      12.70      26.21
Al      17.35       9.92      26.67
Al      15.73      12.46      26.59
H       8.00       9.02       5.24
H       6.19       5.49       5.86
H       4.50       6.69       7.79
H       7.15       1.01       6.49
H      14.35      11.28       7.97
H       7.18       3.70       7.45
H      14.53      12.58      19.95
H      12.74      12.56      20.14
H       8.64       2.59      18.73
H       8.75       4.46       5.20
H      11.07       1.27       5.73
H      11.83      10.25      20.94
H      13.85       6.82      21.08
H      15.56       7.70      18.99
H      15.83      10.21      20.28
H       6.30      10.21       7.18
H       8.44       6.84       7.02
H       6.56       4.65      14.92
H       4.45       3.20      25.06
C       9.96       4.19      11.67
C       6.01       7.74       5.18
C       5.29       7.19       7.23
C      11.60       7.87      11.16
C       6.52       7.95       7.87
C       6.23       6.53       6.17
C       7.47       7.28       6.78
C       5.63       7.68       3.82
C       6.83       8.01       9.25
C       9.33       1.37       7.34
C       8.02       1.67       6.54
C      11.44       7.97       7.18
C       8.55       1.35       2.78
C       9.80       3.58      10.38
C      10.20       1.79       6.12
C       7.70       7.79      11.73
C       8.89       2.09       5.29
C      10.22       3.28       6.63
C       9.34       2.85       7.89
C       8.90       3.58       5.83
C       8.03       3.15       7.05
C       8.68       1.71       3.94
C      11.60       8.01       8.51
C       9.59       3.24       9.23
C      13.62      10.20      19.33
C      12.67       9.71      20.50
C      14.48       9.69      23.82
C      10.53       4.55      15.47
C      12.89       8.41      16.07
C      14.89       9.67      20.12
C      13.93       9.19      21.30
C      14.74       8.28      19.43
C      13.50       8.80      18.60
C      11.73       8.02       9.73
C      13.81       7.78      20.57
C      12.54       8.31      19.79
C      14.20       9.43      22.66
C      13.20       8.60      17.24
C       7.91       9.82      23.06
C      12.27       8.07      14.83
C       7.87       9.56      21.86
C       7.82       9.30      20.55
C       7.78       9.08      19.33
C       7.80       8.81      18.02
C       6.29       9.16       6.88
C       7.87       8.57      16.82
C      11.66       3.55      23.10
C      11.58       3.73      21.89
C      11.47       3.88      20.56
C      11.33       3.98      19.34
C      11.11       4.08      18.02
C       8.19       8.15      15.49
C      10.87       4.18      16.82
C       4.51       7.87       1.44
C      11.58       7.96       1.99
C       7.23       8.50       5.83
C       8.50       0.71       1.50
C       7.75      10.26      24.41
C      15.04      10.13      25.06
C      11.86       3.10      24.45
C      11.28       7.83       3.39
C      11.28       7.86       4.62
C      11.32       7.92       5.96
C      11.38       4.11       6.70
C      13.57      12.53      19.41
C      11.33       7.61      19.59
C       5.20       7.69       2.68
C      15.00       9.03       5.95
C       7.14       7.99      10.42
C       5.05       8.42       6.27
N      12.33       4.78       6.77
N      10.32       7.04      19.40
N      14.00       9.57       5.66
O       7.49       6.67      12.27
O      11.10       8.98       1.39
O       7.33       0.45       1.01
O       8.92       4.41      12.35
O      13.05       2.97      24.84
O       8.08      11.45      24.68
O       7.22       9.40      25.23
O      15.91       9.36      25.62
O      14.71      11.28      25.50
O      10.80       2.80      25.12
O      17.31      11.68      26.48
O      12.59       6.94      14.31
O      11.17       4.52      12.00
O      12.12       6.83      11.69
O      10.90       8.75      11.76
O       8.42       8.75      12.21
O       7.81       7.01      15.12
O       9.31       4.77      15.23
O      11.51       4.67      14.64
O      13.50      11.34      18.61
O      11.39       8.87      14.36
O       8.90       8.99      14.80
O       9.90       6.67      13.43
O       9.60       0.40       0.97
O       4.73       8.93       0.80
O       3.67       6.94       1.12
O      12.36       7.09       1.49
O       6.88       4.70      14.01
O       4.34       2.81      25.94
