133

Zn       3.22       5.54      10.96
Zn       6.00       5.53      11.14
Zn       6.15       5.34      22.12
Zn       3.36       5.43      22.17
H       8.08       6.94       9.69
H       8.53       4.19      14.10
H       8.45       2.86      12.90
H       1.20       2.94      12.67
H       1.26       4.28      13.85
H       2.61       1.28      11.79
H       7.47       1.23       9.54
H       7.93       1.25      11.26
H       7.89       9.79      11.30
H       7.43       9.77       9.57
H       2.89       7.55      19.15
H       2.49       7.39      14.22
H       7.03       5.26       4.27
H       1.75       6.07       4.18
H       1.79       4.29       4.28
H       1.78       4.45       6.81
H       1.77       6.23       6.68
H       1.45       6.72       1.54
H       1.15       4.35      19.15
H       1.19       2.93      20.24
H       8.41       2.91      20.24
H       8.44       4.32      19.14
H       6.81       1.14      21.36
H       2.12       1.11       1.13
H       1.47       0.99      21.60
H       1.55       9.53      21.78
H       2.27       9.65       1.30
H       0.89       8.32       9.47
H       1.97       7.01       8.94
H       0.34       7.20       8.21
H       1.64       9.31      11.15
H       2.39       8.87      12.68
H       1.55      10.45      12.52
H       7.63       6.38       7.38
H       7.59       4.64       7.64
H       8.27       5.29       6.12
H       9.26       7.53       2.49
H       7.83       7.66       1.42
H       7.95       6.31       2.53
H       7.74       9.03      21.97
H       7.16       8.92      20.32
H       7.99      10.40      20.86
H       6.27       4.54      14.23
H       6.46       4.55      18.80
H       1.44       9.27      19.05
H       1.02       9.10      14.47
C       4.64       2.95      11.11
C       4.40       5.62      13.69
C       4.67       8.14      11.16
C       4.80       5.51       8.44
C       4.78       2.80      21.93
C       4.65       5.61      19.49
C       4.77       8.00      22.10
C       4.91       5.23       2.56
C       8.88       4.83      12.00
C       0.33       6.37      10.18
C       0.49       4.87      11.87
C       8.71       6.33      10.33
C       8.92       3.83      13.13
C       0.72       3.87      12.98
C       4.66       1.46      11.18
C       4.64       9.63      11.24
C       5.80       0.71      10.91
C       3.48      10.38      11.58
C       5.78      10.37      10.94
C       3.52       0.72      11.53
C       7.26       0.78      10.51
C       7.24      10.25      10.54
C       4.61       5.77      18.02
C       3.63       6.60      17.35
C       5.55       5.07      17.26
C       2.81       7.51      18.07
C       1.94       8.37      17.43
C       4.45       5.75      15.17
C       5.48       5.06      15.84
C       3.53       6.57      15.92
C       2.59       7.42      15.31
C       1.81       8.32      16.02
C       4.90       5.24       4.05
C       4.89       5.40       6.95
C       3.72       5.25       4.79
C       6.12       5.37       6.21
C       3.73       5.32       6.18
C       6.09       5.29       4.81
C       2.21       5.22       4.70
C       2.21       5.31       6.27
C       0.59       4.81      21.23
C       9.25       6.17       0.84
C       8.97       4.80      21.24
C       0.88       6.15       0.81
C       0.70       3.89      20.04
C       8.89       3.88      20.04
C       4.73       1.31      21.85
C       4.81       9.48      21.92
C       3.59       0.56      22.08
C       5.97      10.23      21.57
C       3.64      10.22      22.14
C       5.90       0.58      21.58
C       2.39       0.59       0.20
C       2.46      10.06       0.30
C       0.92       7.27       9.14
C       2.19       9.72      12.01
C       7.48       5.42       6.87
C       8.55       6.97       1.88
C       7.29       9.61      21.16
N       8.07       5.55      11.23
N       1.14       5.61      10.97
N       1.32       5.47      22.11
N       8.24       5.46      22.14
O       3.52       3.54      11.27
O       5.76       3.52      10.87
O       5.48       5.21      13.11
O       3.34       5.88      13.04
O       5.77       7.56      11.42
O       3.59       7.56      10.79
O       3.64       5.30       8.95
O       5.84       5.81       9.10
O       5.93       3.33      22.04
O       3.66       3.41      21.90
O       3.58       5.78      20.16
O       5.78       5.27      20.02
O       3.93       7.46       0.18
O       5.87       7.35      21.97
O       6.04       5.27       1.97
O       3.77       5.20       1.99
O       6.44       4.35      15.22
O       6.54       4.34      17.81
O       1.18       9.30      18.11
O       0.93       9.19      15.43
