84

Zn       8.85       8.01       9.60
Zn       6.04       8.06       9.60
H       9.59       8.29       5.37
H       8.42       0.89       7.56
H      13.94      10.23      10.38
H       0.96       5.89       8.83
H      14.52       5.54      11.61
H       0.37      10.59       7.60
H       9.04       0.27      12.35
H       5.86      15.82       6.85
H       4.18       0.19       9.75
H      10.71      15.90       9.46
H       0.38       8.74      12.76
H       5.31       8.31      13.84
H      14.52       7.40       6.45
H       9.60       8.69       2.89
H       5.30       8.71      16.32
H       5.30       8.71       2.88
H       9.60       8.69      16.33
H       5.30       8.32       5.36
H       9.60       8.29      13.84
H       6.47      15.20      11.65
C       7.51      10.65       9.60
C       6.10       0.41       9.68
C       7.54      14.72       9.58
C       7.36       1.36       9.62
C       7.54      13.31       9.58
C       7.35       2.77       9.63
C      14.35       9.28      10.04
C       0.54       6.85       9.17
C       0.50       8.32      10.87
C      14.40       7.81       8.33
C       0.50       9.06       8.78
C       7.38       5.44       9.61
C      14.40       7.06      10.42
C       1.42       8.08       9.61
C      13.47       8.04       9.60
C       7.44       8.12       6.99
C       7.46       8.11      12.21
C       2.84       8.11       9.61
C      12.06       8.01       9.59
C       8.66       8.38       4.81
C       6.24       8.39      14.40
C       8.67       8.60       3.43
C       8.06       0.43      10.69
C       6.24       8.61      15.77
C       7.45       8.73       2.73
C       7.45       8.73      16.47
C       6.23       8.61       3.43
C       8.67       8.60      15.77
C       6.23       8.40       4.80
C       8.67       8.38      14.40
C       7.44       8.29       5.50
C       7.46       8.28      13.70
C       7.45       8.99      17.91
C       6.83      15.65       8.51
C       7.45       8.99       1.29
C       6.93      15.62      10.75
C       7.97       0.47       8.46
C       7.53      12.09       9.59
C       7.37       3.99       9.62
C       8.80      15.68       9.52
N       6.27       9.17       0.66
N       8.63       9.17      18.55
N       6.27       9.17      18.55
N       8.64       9.17       0.66
N       4.00       8.11       9.62
N      10.90       7.98       9.59
O       8.65      10.07       9.61
O       1.07      10.01       7.97
O       8.75       0.99      11.75
O       6.14      15.10       7.45
O       4.82       0.93       9.74
O      10.08      15.15       9.47
O       1.07       8.54      12.10
O      13.83       7.59       7.11
O       6.25       6.02       9.60
O       6.36      10.10       9.60
O       8.53       5.98       9.60
O       8.57       8.05       7.57
O       6.32       8.07      11.64
O       6.30       8.08       7.57
O       8.59       8.05      11.64
O      13.83       6.11      11.23
