76

Al       0.13       0.06       8.61
Al       3.70      12.36       8.64
Al       6.76       6.21       0.01
Al       3.44       6.14       0.04
H       1.84       1.69       9.14
H       5.42      10.78       9.24
H       1.95       4.55      16.82
H       5.27       7.83      16.72
H       3.23       4.55       3.64
H       0.33       1.65       5.01
H       6.78       9.37      14.57
H       3.90       9.24      11.39
H       3.74       9.23       2.68
H       6.72       9.35       5.97
H       3.39       3.09      14.63
H       0.39       3.15      11.32
C       5.14       1.55      10.53
C       5.08       1.58       6.81
C       2.01      10.92       6.73
C       2.02      10.84      10.50
C       5.31       4.69      15.43
C       5.15       4.62       1.85
C       1.79       7.65       1.92
C       2.01       7.77      15.46
C       5.06       2.41       5.56
C       5.16       3.79       3.09
C       3.99       3.24       5.16
C       6.23       2.96       3.49
C       4.06       3.91       3.94
C       6.17       2.29       4.71
C       1.97      10.07      11.79
C       2.06       8.54      14.17
C       0.90      10.11      12.70
C       3.13       8.51      13.26
C       0.96       9.34      13.87
C       3.07       9.27      12.09
C       2.00      10.11       5.48
C       1.80       8.47       3.18
C       3.04      10.08       4.53
C       0.76       8.50       4.13
C       2.93       9.26       3.41
C       0.87       9.32       5.25
C       5.13       2.34      11.80
C       5.32       3.90      14.16
C       4.09       2.32      12.76
C       6.36       3.92      13.20
C       4.20       3.10      13.90
C       6.25       3.14      12.06
Cl       2.60       3.52       6.15
Cl       0.96       2.69       2.51
Cl       6.15      11.09      12.50
Cl       4.53       7.52      13.46
Cl       4.46      11.06       4.65
Cl       6.01       7.51       4.00
Cl       2.68       1.33      12.61
Cl       1.10       4.91      13.35
O       6.28       1.24      10.07
O       3.97       1.16       7.23
O       3.12      11.12       7.31
O       0.92      11.10       9.92
O       0.88      11.33       7.15
O       3.18      11.16      10.07
O       4.02       1.28       9.99
O       6.22       1.34       7.33
O       1.81       0.84       8.69
O       5.37      11.57       8.68
O       6.43       4.96      15.97
O       4.01       4.86       1.33
O       2.92       7.25       1.51
O       0.85       7.46      15.89
O       0.68       7.45       1.34
O       3.11       7.51      16.04
O       4.17       5.00      15.89
O       6.26       5.05       1.42
O       1.98       5.40      17.27
O       5.31       7.04      17.28
