92

Zn       2.69       4.94       7.99
Zn       5.43       5.05       8.09
H       6.30       6.78       1.25
H       1.74       3.50      14.86
H       7.53       4.71       6.02
H       0.60       5.28      10.07
H       0.52       4.64       5.98
H       7.61       5.35      10.11
H      -0.19       5.11      15.33
H       0.74       6.59      15.00
H       9.19       7.25       1.10
H       0.51       8.71       0.69
H       8.09       7.77      14.39
H       6.80       7.83      15.61
H       7.18       6.30      14.80
H       7.32       3.64       1.06
H       8.26       5.13       0.75
H       7.51       1.57      15.30
H       8.41       3.04      14.91
H       0.89       3.91       1.20
H       1.24       2.41       0.32
H      -0.01       2.43       1.57
H       7.86       8.35       8.96
H       6.24       7.98       9.61
H       8.27      -0.37       9.96
H       6.55      -0.48      10.34
H       6.54       8.67      12.03
H       7.52      10.10      12.40
H       8.28       8.69      11.66
H       2.90       2.19      10.63
H       2.48       0.58      11.29
H       0.47       2.65      10.26
H       0.07       1.07      10.96
H       1.09       1.78      13.17
H      -0.19       2.90      12.68
H       1.52       3.35      12.46
C       3.98       7.57       8.24
C       4.11       2.44       8.11
C       5.40       0.26       7.86
C       2.82       9.75       8.91
C       4.22       0.94       8.21
C       3.97       9.05       8.47
C       8.14       4.83       6.91
C      -0.01       5.15       9.18
C      -0.05       4.79       6.89
C       8.19       5.19       9.20
C       4.05       5.03      10.67
C       4.11       5.05       5.44
C       3.32       6.10       0.39
C       4.72       4.18      15.72
C       3.48       6.01      15.76
C       4.56       4.27       0.35
C       3.96       5.02      12.11
C       4.17       5.16       4.00
C       2.51       4.03      15.41
C       5.53       6.25       0.69
C       3.68       4.82      14.71
C       4.36       5.46       1.40
C       3.85       4.95      13.32
C       4.23       5.30       2.79
C       5.10       9.83       8.10
C       3.17       0.21       8.81
C       0.19       6.04      15.78
C       0.09       7.79       0.27
C       7.62       7.21      15.22
C       7.86       4.21       0.29
C       7.94       2.48      15.74
C       0.43       3.02       0.75
C       6.89       8.78       9.24
C       7.05       9.88      10.28
C       7.37       9.30      11.66
C       2.16       1.38      10.61
C       0.79       1.90      11.01
C       0.80       2.52      12.41
I       3.46       8.07      15.26
I       4.58       2.21       0.81
I       7.06       1.18       6.93
I       1.19       8.85       9.92
N       0.64       4.94       8.03
N       7.49       5.04       8.06
O       2.87       6.95       8.35
O       5.12       3.09       8.51
O       5.07       7.02       7.89
O       3.03       2.94       7.67
O       2.99       4.69      10.04
O       5.19       4.78       6.04
O       5.17       5.37      10.16
O       2.96       5.24       5.97
O       2.12       6.60       0.82
O       5.91       3.69      15.27
O       6.35       9.29       7.98
O       2.05       0.85       9.27
