100

Zn       6.31       5.46      14.49
Zn       3.58       5.54      14.49
Zn       3.50       5.51       3.41
Zn       6.23       5.59       3.41
H       1.48       3.98      13.14
H       8.40       7.01      15.82
H       2.89       9.66      14.48
H       6.99       1.34      14.51
H       2.77       5.46      28.11
H       7.10       5.50      28.18
H       2.88       5.52      18.73
H       7.20       5.46      18.80
H       7.05       5.56       7.72
H       2.76       5.54      10.18
H       8.33       4.03       4.76
H       1.40       7.07       2.08
H       6.92       9.71       3.41
H       2.81       1.40       3.39
C       5.06       8.11      14.50
C       5.07       5.49      17.11
C       4.83       2.89      14.48
C       4.83       5.51      11.88
C       4.75       8.17       3.40
C       4.74       5.55       0.79
C       4.98       2.94       3.41
C       4.98       5.56       6.02
C       9.16       4.63      13.70
C       0.73       6.36      15.26
C       0.86       4.66      13.73
C       9.02       6.34      15.23
C       4.84       1.38      14.48
C       5.04       9.61      14.50
C       3.70       0.57      14.47
C       6.18      10.43      14.51
C       3.80      10.26      14.48
C       6.09       0.74      14.50
C       4.93       5.48      28.30
C       3.73       5.47      27.58
C       3.77       5.48      26.20
C       4.98       5.49      25.47
C       6.16       5.50      26.24
C       6.16       5.50      27.62
C       4.99       5.50      24.06
C       4.99       5.50      22.84
C       5.00       5.50      21.44
C       3.82       5.51      20.67
C       3.82       5.51      19.28
C       5.04       5.49      18.61
C       6.25       5.48      19.32
C       6.21       5.48      20.70
C       4.90       5.53      10.38
C       4.91       5.55       7.52
C       6.10       5.54       9.64
C       3.71       5.55       8.26
C       6.10       5.55       8.26
C       3.70       5.54       9.65
C       0.65       4.69       4.20
C       9.08       6.41       2.64
C       8.95       4.71       4.17
C       0.78       6.40       2.67
C       4.96       1.44       3.41
C       4.77       9.67       3.40
C       6.10       0.62       3.42
C       3.63      10.48       3.39
C       6.02      10.31       3.41
C       3.71       0.79       3.40
N       8.41       5.45      14.43
N       1.47       5.54      14.53
N       1.40       5.51       3.47
N       8.33       5.59       3.37
O       6.19       7.52      14.55
O       3.92       7.54      14.44
O       3.94       5.47      16.51
O       6.21       5.51      16.55
O       3.71       3.48      14.40
O       5.97       3.45      14.57
O       5.93       5.50      12.50
O       3.67       5.51      12.41
O       3.62       7.58       3.34
O       5.89       7.59       3.47
O       5.86       5.53       1.39
O       3.60       5.57       1.35
O       6.10       3.54       3.49
O       3.84       3.50       3.33
O       3.87       5.56       5.40
O       6.14       5.56       5.49
F       8.53       3.76      12.91
F       1.36       7.22      16.06
F       2.45       1.11      14.46
F       7.43       9.89      14.53
F       7.31       5.54      10.26
F       2.50       5.55       7.64
F       1.28       3.82       4.99
F       8.45       7.28       1.85
F       7.35       1.16       3.43
F       2.38       9.95       3.38
F       7.34       5.51      25.58
F       2.61       5.47      25.50
F       7.37       5.46      21.40
F       2.63       5.52      21.33
