106

Zn       6.24       8.96       0.66
Zn      21.58       8.96       0.66
Zn       4.64       6.18       0.66
Zn      13.91      13.39      13.18
Zn      21.58      17.81       6.92
Zn      13.91       4.53       6.92
Zn      24.79      17.81       6.92
Zn      23.18      18.74       9.54
C      23.18      10.98       2.08
C      20.63       6.56       2.08
C       7.19       6.56       2.08
C      13.91      10.44      13.06
C      16.46      14.86      13.06
C      29.90      14.86      13.06
C      11.36       4.15       5.49
C      16.46       4.15       5.49
C      23.18      15.79       5.49
C      25.74      17.27       9.66
C      20.63      17.27       9.66
C      13.91       5.62       9.66
C      17.53      15.47      12.19
C      19.57      16.65      10.52
C      17.46      15.43      10.79
C      19.64      16.69      11.93
C      18.44      16.00       9.98
C      18.65      16.12      12.74
C      19.57       5.94       2.95
C      17.53       4.76       4.62
C      19.64       4.61       3.38
C      17.46       6.10       4.19
C      18.65       4.04       4.19
C      18.44       6.67       3.38
C       8.25       5.94       2.95
C      10.30       4.76       4.62
C       8.18       4.61       3.38
C      10.36       6.10       4.19
C       9.17       4.04       4.19
C       9.38       6.67       3.38
C      28.84      15.47      12.19
C      26.80      16.65      10.52
C      28.91      15.43      10.79
C      26.73      16.69      11.93
C      27.92      16.00       9.98
C      27.72      16.12      12.74
C      23.18      12.21       2.95
C      23.18      14.57       4.62
C      21.99      12.82       3.38
C      24.38      13.96       4.19
C      21.99      13.96       4.19
C      24.38      12.82       3.38
C      13.91       9.21      12.19
C      13.91       6.85      10.52
C      13.91       9.29      10.79
C      13.91       6.77      11.93
C      13.91       8.15       9.98
C      13.91       7.91      12.74
O       4.64       8.03       0.00
O      24.32      10.51       1.75
O      20.47       7.77       1.75
O       6.22       5.81       1.75
O      22.05      10.51       1.75
O       7.35       7.77       1.75
O      21.60       5.81       1.75
O      13.91      10.25      14.32
O      15.49      14.30      12.46
O      13.91      11.56      12.46
O      16.63      14.95      14.32
O      29.74      14.95      14.32
O      30.88      14.30      12.46
O      23.18      18.74       7.57
O      11.19       2.93       5.82
O      15.49       4.90       5.82
O      24.32      16.26       5.82
O      12.33       4.90       5.82
O      22.05      16.26       5.82
O      16.63       2.93       5.82
O      25.90      17.17       8.40
O      21.60      17.83      10.25
O      24.76      17.83      10.25
O      20.47      17.17       8.40
O      13.91       5.81       8.40
O      13.91       4.50      10.25
F      16.44      14.84      10.14
F      20.66      17.28      12.57
F      18.26      15.89       8.65
F      18.84      16.23      14.06
F      20.66       3.80       3.04
F      16.44       6.91       4.53
F      18.84       2.75       4.53
F      18.26       7.96       3.04
F       7.16       3.80       3.04
F      11.38       6.91       4.53
F       8.98       2.75       4.53
F       9.56       7.96       3.04
F      29.93      14.84      10.14
F      25.71      17.28      12.57
F      28.11      15.89       8.65
F      27.53      16.23      14.06
F      20.78      12.33       3.04
F      25.58      14.44       4.53
F      20.78      14.44       4.53
F      25.58      12.33       3.04
F      13.91      10.47      10.14
F      13.91       5.59      12.57
F      13.91       8.37       8.65
F      13.91       7.70      14.06
