88

Zn       6.07       7.45       8.52
Zn       6.13      10.31       8.47
H       7.67      12.41       9.64
H       7.84      14.93       9.67
H       4.41      15.03       7.05
H       7.64       2.75      10.17
H       4.34       2.83       7.39
H       4.57       5.34       7.34
H       6.15      11.25      12.61
H       6.19      11.47      15.11
H       6.09       7.19      15.45
H       6.01      10.67       1.55
H       6.00       6.39       1.89
H       6.05       6.61       4.39
H       3.13      10.68      10.32
H       9.26      10.73      10.52
H      10.31       7.21       7.45
H       1.73       7.13       7.39
H       3.91      11.39       7.36
H       3.36      12.87       6.62
H       8.22       6.37       9.78
H       8.69       4.90      10.61
H       5.98       6.62      11.84
H       5.89       5.88      13.44
H       6.15      11.25       5.15
H       6.20      11.98       3.55
H       1.99      13.57      11.85
H       3.30      12.36      11.90
H       2.02      12.36      13.13
H      10.66      12.39      13.23
H       9.26      12.36      12.15
H      10.53      13.58      11.94
C       6.06       9.08      11.13
C       8.74       8.93       8.67
C       6.12       8.78       5.88
C       3.46       8.76       8.53
C       6.96      13.04       9.09
C       7.07      14.41       9.11
C       6.12      15.14       8.34
C       5.14      14.46       7.64
C       5.07      13.05       7.71
C       6.95       3.31       9.54
C       5.99       2.63       8.81
C       5.10       3.35       7.98
C       5.23       4.72       7.95
C       7.05       4.72       9.43
C       6.10       9.11      12.61
C       6.14      10.37      13.25
C       6.16      10.50      14.63
C       6.13       9.32      15.41
C       6.10       8.07      14.80
C       6.09       7.92      13.40
C       6.02       9.79       2.20
C       6.01       8.53       1.59
C       6.01       7.36       2.38
C       6.04       7.49       3.75
C       6.06       8.75       4.40
C       6.04       9.93       3.60
C       1.97       8.82       8.69
C       1.33       9.79       9.52
C       1.22       7.89       7.99
C       2.04      10.70      10.35
C       1.41      11.59      11.20
C      10.24       8.89       8.77
C      10.90       7.92       8.03
C      10.97       9.82       9.57
C      10.35      10.73      10.46
C      11.06      11.60      11.26
C       2.22      12.51      12.06
C      10.34      12.53      12.19
N       6.01      12.36       8.41
N       6.09      16.55       8.22
N       6.01       1.22       8.95
N       6.17       5.40       8.65
N       6.14       9.29      16.82
N       6.00       8.56       0.18
N       4.10      12.35       7.07
N       7.99       5.41      10.10
N       6.10       6.67      12.85
N       6.00      11.19       4.14
O       6.01       7.93      10.54
O       6.07      10.19      10.50
O       8.18      10.07       8.56
O       8.13       7.81       8.67
O       6.19       9.93       6.46
O       6.09       7.67       6.51
O       4.00       7.61       8.54
O       4.08       9.86       8.38
