112

Zn      -9.09       5.02      15.87
Zn      14.03       6.76       0.01
Zn       7.10       3.48      14.18
Zn      -1.54       7.63       1.56
H     -10.21       8.02      15.77
H      -4.83       3.92      15.99
H      -2.14       6.43       4.53
H       8.93       2.15      11.89
H       5.73       6.31      12.70
H      -6.53      -0.07      15.69
H       8.41      -1.51       6.06
H      -0.56      10.67       8.91
H      12.03       4.44       3.22
H      12.33       4.66       1.56
H      -5.94       5.39      12.78
H       8.35      -1.48      13.76
H      -6.56       5.83      14.31
H      -0.10      13.40       2.44
H       5.47      -2.39      13.67
H      -2.09      14.59       5.48
H       2.58      13.28      10.43
H       4.12      -2.98       8.62
H       2.51      13.26       7.28
H       4.82       4.92      15.79
H       1.51       7.51       3.26
H      -2.00       8.95       4.37
H       6.55       1.99      11.06
H      11.96       7.64       2.16
C     -10.77       7.38      15.09
C       1.50      13.55       7.58
C      -0.41      14.46       6.90
C       0.89      13.36       9.01
C      -0.56      11.51       4.91
C       6.22      -0.94      10.93
C      -0.46      12.82       8.42
C       7.09      -2.51       7.52
C       0.17      12.96       6.96
C       6.45      -2.66       8.95
C      -0.07      12.09       5.87
C       9.09      -0.95      14.35
C       6.40      -1.72      10.01
C      -4.67       5.10       5.31
C      -7.12       3.59      10.99
C      13.71       5.49       2.81
C      -7.54       4.30      13.37
C      -5.12       4.72       6.39
C      -6.58       3.79       9.90
C      -5.61       4.36       7.59
C      -6.06       4.06       8.70
C       3.78       9.17       2.14
C      -4.16       5.55       4.10
C      10.05       9.84       1.71
C       4.98       9.41       2.27
C       8.85       9.85       2.01
C       6.31       9.62       2.31
C       7.53       9.78       2.23
C       6.46       9.05      13.72
C      11.11      -2.35      13.90
C       6.22      10.24      13.53
C      11.50      -3.48      13.60
C       5.95      11.55      13.41
C      -7.81       3.52      12.20
C      11.86      -4.76      13.43
C      12.07      10.30       0.23
C       1.45       8.16       2.38
C      -1.82       9.72       3.63
C       6.36       1.37      11.93
C      12.14       8.46       1.48
C       1.77       9.55       0.68
C      -1.23      11.51       2.47
C       5.95      -0.27      13.38
C      -2.93       6.19       3.83
C      11.35       9.61       1.23
C       9.48       2.85      12.51
C       6.43       6.50      13.51
C      -7.53      -0.25      15.33
C       6.82       7.74      14.07
C      10.48      -1.22      14.42
C       7.82      -1.32       6.99
C      -1.18      11.60       8.88
C      -0.69      12.68       1.85
C       5.75      -1.45      14.17
C      -1.04      14.93       5.65
C       2.44       8.97       1.80
C       1.57      12.84      10.22
C      -1.15      10.94       3.77
C       6.13      -0.02      11.98
C       5.13      -3.27       8.31
N     -10.64       6.04      15.14
N       0.51       9.13       0.61
N      -1.90      10.65       1.66
N       6.10       0.89      14.06
N      -2.83       6.48       2.53
N       9.05       3.21      13.73
N       7.05       5.50      14.15
N      -8.57       0.49      15.78
N      12.45       5.01       2.51
N      -6.46       5.10      13.61
N       8.78       0.06      15.17
N      14.51       6.04       1.89
N      -8.52       4.10      14.26
N       6.17       3.28      15.95
N       0.32       8.27       1.65
N      -2.24       9.56       2.34
N       6.33       1.88      13.19
N      13.21       8.47       0.67
O       7.80      -0.23       7.52
O      -2.36      11.60       9.16
O      -0.86      12.89       0.62
O       5.91      -1.42      15.41
O      -0.45      15.60       4.81
O       1.07      12.02      10.97
