120

Zn      18.45       5.33      13.23
Zn      18.46      14.28       0.56
Zn       7.73       1.00       0.61
Zn      10.88       0.97       0.61
Zn      27.59      10.81       9.66
Zn      10.81       9.76       7.13
Zn      27.51      12.46       6.91
Zn      26.08       9.62       7.10
H      13.26       8.00      10.34
H      22.75      14.84       3.32
H      13.84      12.50       5.20
H      28.15      16.04       9.21
H      27.44      16.31      12.73
H      22.87      12.48      12.47
H      24.36      11.13      11.09
H      25.64       6.58       9.27
H      22.03       4.49      11.98
H      22.06      13.94       5.53
H      10.48      13.69       3.79
H      13.91       8.35      13.94
H      25.26      15.95      11.58
H      26.98      19.36      10.16
H      21.01      12.71      13.98
H      16.12      19.02       8.93
H      15.29       7.78      11.24
H       7.31       6.28       4.60
H      10.39       6.20       4.52
H       7.41       4.08       3.48
H      10.24       4.90       2.56
H      21.48      12.12       2.59
H      20.75       8.97      13.79
C      20.95      14.69       2.09
C      24.66       4.80       9.81
C      23.62       4.20      10.60
C      16.06       7.02      13.14
C      22.82       4.96      11.41
C      12.99       9.08      12.10
C      12.70       8.81      10.81
C      14.02       8.37      12.86
C      15.09       7.76      12.31
C       8.29       5.90       4.28
C       9.38       6.55       4.73
C      23.57      10.63      11.66
C       8.31       4.70       3.46
C       9.33       4.31       2.68
C      23.26      12.19       3.85
C      27.54      18.47      13.06
C      23.73      12.57       5.06
C      22.18      12.79       3.09
C      22.04      14.12       2.91
C      12.69      13.79       3.98
C      12.84      12.85       4.94
C      13.88      14.42       3.37
C      23.43       9.21      11.60
C      14.60      13.93       2.35
C      27.48      16.05      10.07
C      26.72      14.95      10.30
C      27.49      17.28      10.84
C       9.31       3.04       1.94
C      27.45      17.27      12.20
C       9.29       7.75       5.58
C      27.04      13.71       9.52
C      11.71       9.44       9.91
C      24.93      11.93       5.70
C      22.38       8.58      12.39
C      11.74      12.20       5.71
C      25.26       9.04       9.89
C      15.79      14.59       1.72
C      21.12       6.57      13.15
C      21.54       9.41      13.18
C      21.70      10.78      13.21
C      22.73      11.39      12.44
C      23.04      13.58       5.91
C      11.37      14.23       3.42
C      25.55      14.94      11.22
C      24.23       8.40      10.77
C      27.71      18.54      10.03
C      20.80      11.61      14.03
C       7.11       4.02       8.92
C      24.04       7.00      10.70
C      23.00       6.38      11.49
C      22.20       7.19      12.32
C      24.84       6.16       9.88
Br      32.46      18.43      10.52
Br      24.07      10.73       2.93
Br      14.32      16.07       4.20
Br      14.13      12.25       1.58
Br      12.12      10.41      13.14
O      18.46       5.25      15.19
O      26.00      12.60       5.64
O      11.98      11.02       6.12
O      21.00      15.95       1.91
O      25.09       8.88       8.63
O      10.69      12.89       5.92
O      26.20       9.67      10.46
O      10.85      10.24      10.40
O      24.73      10.81       6.27
O      10.41       8.25       5.96
O      27.24      13.85       8.27
O      27.62      19.61      12.48
O      16.94       6.34      12.50
O      27.53      18.24      14.31
O       8.22       2.36       1.91
O      16.84      13.88       1.61
O      21.31       6.54      14.41
O      15.62      15.79       1.34
O      20.09       6.15      12.52
O      23.50      13.95       6.98
O      11.29      15.12       2.58
O      24.88      13.95      11.50
O      10.42       2.70       1.38
O      28.62      18.60       9.23
O      19.88      11.18      14.73
O       7.97       4.53       8.22
O      20.07      13.89       1.62
O      15.95       7.11      14.41
O      27.62      10.67       7.70
O       8.13       8.19       5.88
O      27.13      12.64      10.21
O      11.82       9.10       8.68
