190

Zn      -0.03       2.02       0.73
Zn     -12.06      23.32       0.78
Zn      -0.04      16.43      21.01
Zn      12.07      23.42       0.79
Zn      13.63       6.41      10.88
Zn      12.10       9.31      10.87
Zn     -12.06       9.18      10.84
Zn     -13.54       8.33      13.44
H       3.12       4.15       2.58
H       4.85       5.10       4.07
H       6.89       2.90       6.48
H       6.53       5.71       5.26
H       7.69       7.46       6.26
H       9.45       8.34       7.79
H      10.48       4.33       8.92
H       8.69       3.44       7.47
H       5.67       1.15       5.61
H       3.98       0.20       4.04
H     -13.98      -2.18      21.39
H     -13.96      -0.25      19.84
H      14.01      -0.67      16.07
H     -14.03       1.26      18.36
H     -14.11       3.52      17.90
H     -14.08       5.45      16.32
H      13.81       2.76      13.03
H      13.80       0.82      14.58
H      14.19      -2.92      16.55
H      14.14      -4.85      18.12
H      -2.61       4.07       3.37
H      -4.40       5.05       4.78
H      19.45       3.45       5.08
H      -5.84       5.38       6.37
H      -6.71       6.92       7.93
H      -8.53       7.71       9.44
H      16.29       4.47       8.17
H      18.07       3.67       6.64
H      20.27       1.86       3.61
H      22.09       0.87       2.22
H     -22.57      13.51      21.48
H     -20.92      12.54      19.91
H       5.87      12.58      16.11
H     -19.41      12.24      18.39
H     -17.35      11.30      17.88
H     -15.70      10.34      16.27
H       8.90      11.09      13.03
H       7.25      12.03      14.61
H       3.91      13.72      16.59
H       2.26      14.68      18.19
H     -11.69      19.79       3.02
H     -11.80      17.75       4.43
H      12.23      16.53       5.98
H     -12.10      15.98       5.55
H     -11.17      14.15       6.63
H     -11.34      12.11       8.05
H      11.76      12.74       8.47
H      11.90      14.76       7.04
H      11.28      18.37       4.96
H      11.42      20.42       3.54
H      -3.12      15.39      18.34
H      -4.84      14.29      16.94
H      -6.99      11.39      18.26
H      -6.51      13.41      15.98
H      -7.68      13.05      13.99
H      -9.46      11.91      12.66
H     -10.49       9.51      16.07
H      -8.72      10.62      17.40
H      -5.82      11.67      20.23
H      -4.10      12.82      21.64
C       2.45       1.55       2.26
C       3.45       2.12       3.21
C       3.70       3.50       3.24
C       4.67       4.03       4.08
C       5.41       3.19       4.94
C       6.47       3.67       5.83
C       6.96       4.93       5.90
C       8.04       5.39       6.77
C       8.29       6.77       6.86
C       9.28       7.27       7.70
C      10.07       6.39       8.46
C       9.85       5.01       8.35
C       8.85       4.52       7.53
C      11.12       6.93       9.37
C       5.12       1.81       4.93
C       4.18       1.28       4.06
C     -13.62      -4.80      20.78
C     -13.58      -3.63      19.85
C     -13.80      -2.33      20.32
C     -13.78      -1.25      19.45
C      13.77      -1.44      18.07
C      13.78      -0.36      17.10
C     -13.80       0.95      17.34
C     -13.80       2.03      16.36
C     -13.98       3.35      16.83
C     -13.96       4.43      15.95
C     -13.78       4.22      14.58
C      13.69       2.91      14.10
C      13.68       1.83      14.97
C     -13.75       5.39      13.65
C      14.00      -2.75      17.61
C      13.98      -3.84      18.48
C      24.62       1.76       1.96
C      23.52       2.40       2.73
C      -3.59       3.59       3.44
C      -4.59       4.13       4.23
C      21.47       3.50       4.34
C      20.41       3.95       5.23
C      -6.80       4.87       6.22
C      -7.86       5.26       7.14
C      -7.66       6.38       7.97
C      -8.67       6.83       8.82
C      -9.90       6.15       8.88
C      17.24       5.00       8.09
C      18.24       4.57       7.24
C     -11.00       6.70       9.71
C      21.25       2.34       3.57
C      22.26       1.79       2.79
C       2.43      14.80      20.86
C       3.42      14.17      19.93
C     -22.73      13.56      20.41
C     -21.81      13.02      19.52
C       5.30      13.09      18.12
C       6.25      12.60      17.14
C     -19.80      12.20      17.37
C     -18.85      11.71      16.38
C     -17.59      11.25      16.82
C     -16.67      10.71      15.93
C     -16.97      10.64      14.56
C       9.12      11.13      14.10
C       8.20      11.66      14.99
C     -16.00      10.00      13.62
C       4.10      13.68      17.66
C       3.18      14.21      18.55
C     -13.73      21.43       2.33
C     -13.79      20.22       3.19
C     -12.64      19.47       3.45
C     -12.71      18.32       4.24
C      13.39      17.90       4.79
C      13.24      16.70       5.61
C     -13.11      15.81       5.92
C     -13.27      14.62       6.73
C     -12.13      13.84       7.03
C     -12.22      12.70       7.82
C     -13.46      12.31       8.35
C      12.72      13.06       8.05
C      12.81      14.19       7.26
C     -13.54      11.11       9.24
C      12.24      18.68       4.53
C      12.31      19.82       3.75
C      -2.51      14.88      20.92
C      -3.52      14.18      20.08
C      -3.73      14.58      18.74
C      -4.69      13.96      17.97
C      -5.47      12.90      18.49
C      -6.53      12.24      17.74
C      -6.98      12.57      16.51
C      -8.05      11.91      15.79
C      -8.29      12.27      14.45
C      -9.28      11.64      13.70
C     -10.07      10.64      14.28
C      -9.86      10.29      15.63
C      -8.86      10.91      16.36
C     -11.11       9.94      13.48
C      -5.23      12.49      19.82
C      -4.28      13.13      20.61
O      -0.06       0.14       0.15
O       2.51       0.29       2.03
O       1.60       2.37       1.76
O      11.04       8.17       9.66
O      12.00       6.10       9.80
O      13.79      -5.96      20.24
O     -13.75      -4.56      22.02
O     -13.77       6.55      14.20
O      13.63       5.15      12.40
O      24.39       0.59       1.49
O      -1.61       2.42       1.85
O     -10.78       7.82      10.28
O      15.24       6.02       9.79
O       1.37      15.26      20.32
O     -24.60      14.83      22.11
O     -14.93       9.52      14.15
O      11.02       9.98      12.38
O      12.50      22.08       2.16
O     -12.59      21.73       1.82
O     -12.47      10.43       9.39
O      12.65      10.87       9.79
O      -2.49      14.59      22.16
O      -1.75      15.73      20.33
O     -11.20      10.26      12.25
O     -11.84       9.08      14.08
O     -13.67       8.28      11.49
