96

Zn       3.52       5.56      10.98
Zn       6.25       5.63      11.05
Zn       6.26       5.71      22.01
Zn       3.52       5.68      22.08
H       1.82       6.45       4.30
H       1.77       4.67       4.34
H       1.85       4.72       6.85
H       1.89       6.50       6.82
C       4.74       8.15      11.06
C       5.00       5.58       8.44
C       4.88       3.02      11.00
C       4.88       5.60      13.59
C       4.91       8.26      21.98
C       4.81       5.53       2.53
C       4.89       2.99       0.01
C       4.78       5.65      19.48
C       0.69       4.70      11.77
C       9.09       6.54      10.40
C       9.09       4.77      11.84
C       0.69       6.47      10.32
C       4.89       1.52      11.05
C       4.73       9.66      11.09
C       6.08       0.78      11.06
C       3.54      10.40      11.09
C       5.92      10.41      11.09
C       3.70       0.77      11.07
C       4.89       5.45       4.03
C       5.00       5.56       6.94
C       3.76       5.50       4.82
C       6.16       5.49       6.14
C       3.80       5.55       6.22
C       6.11       5.41       4.74
C       2.24       5.56       4.78
C       2.29       5.59       6.36
C       4.85       5.62      15.09
C       4.80       5.65      17.97
C       3.64       5.63      15.81
C       6.00       5.64      17.25
C       3.62       5.64      17.21
C       6.03       5.62      15.85
C       9.09       4.87      21.26
C       0.58       6.40       0.75
C       0.69       4.85      21.29
C       8.98       6.44       0.68
C       5.01       1.62      22.05
C       4.89       9.76      21.98
C       3.83       0.86      22.01
C       6.07      10.53      22.02
C       3.69      10.49      21.97
C       6.21       0.90      22.05
N       1.36       5.55      11.00
N       8.41       5.68      11.15
N       8.41       5.73      21.99
N       1.36       5.68      22.08
N       7.51       5.50       6.77
N       7.40       5.26       4.02
O       3.66       7.55      11.40
O       5.81       7.60      10.69
O       6.08       5.28       9.04
O       3.89       5.89       8.98
O       5.94       3.62      11.37
O       3.81       3.58      10.60
O       3.83       5.19      12.99
O       5.95       6.00      13.03
O       5.98       7.69      21.59
O       3.76       7.54       0.30
O       3.69       5.22       2.02
O       5.85       5.93       1.92
O       3.89       3.69      21.78
O       5.97       3.58       0.34
O       5.86       5.29      20.05
O       3.71       6.02      20.06
O       7.90       6.58       7.21
O       8.14       4.44       6.76
O       7.57       4.20       3.40
O       8.22       6.18       4.12
F       1.35       3.79      12.45
F       8.44       7.48       9.76
F       8.43       3.93      12.62
F       1.35       7.31       9.54
F       7.29       1.38      11.02
F       2.33       9.80      11.09
F       7.13       9.81      11.13
F       2.49       1.37      11.10
F       2.45       5.66      15.19
F       7.20       5.68      17.86
F       2.41       5.63      17.79
F       7.24       5.58      15.27
F       8.44       4.02      20.49
F       1.24       7.21       1.56
F       1.37       4.01      20.52
F       8.31       7.33       1.39
F       2.61       1.44      22.02
F       7.28       9.94      22.05
F       2.49       9.87      21.90
F       7.41       1.51      22.06
