114

Zn       3.30       5.55      12.23
Zn       6.05       5.56      12.17
Zn       6.14       5.51       1.04
Zn       3.39       5.51       1.13
H       1.10       6.89      10.62
H       8.30       6.91      10.59
H       8.24       4.31      15.10
H       8.22       2.95      13.94
H       1.03       2.90      13.95
H       1.05       4.26      15.10
H       2.38       9.89      12.24
H       2.43       1.27      12.26
H       7.68       1.23      11.22
H       7.73       1.14      13.00
H       7.69       9.75      12.89
H       7.60       9.82      11.11
H       6.10       5.60      21.09
H       1.80       5.68      21.30
H       2.76       5.61      16.59
H       7.06       5.67      16.38
H       6.92       5.50       7.84
H       6.86       5.49       5.35
H       1.59       6.48       5.46
H       1.57       4.69       5.47
H       1.63       4.72       8.00
H       1.67       6.50       7.97
H       8.32       6.85       2.65
H       1.12       6.86       2.71
H       0.66       4.32      22.59
H       0.67       2.96      23.75
H       7.85       2.91      23.72
H       7.85       4.27      22.56
H       7.03       9.85       1.04
H       6.98       1.23       1.02
H       1.74       1.20       2.08
H       1.68       1.10       0.30
H       1.72       9.70       0.42
H       1.82       9.78       2.19
C       4.57       2.93      12.24
C       4.82       5.60      14.84
C       4.50       8.17      12.16
C       4.82       5.55       9.58
C       4.84       2.89       1.04
C       4.04       5.60      22.84
C       4.91       8.13       1.13
C       4.69       5.51       3.71
C       8.83       4.87      13.05
C       0.52       6.30      11.33
C       0.49       4.84      13.05
C       8.86       6.31      11.32
C       8.71       3.90      14.20
C       0.57       3.87      14.20
C       4.57       1.44      12.21
C       4.52       9.66      12.15
C       5.74       0.67      12.15
C       3.34      10.42      12.21
C       5.71      10.39      12.11
C       3.36       0.71      12.23
C       7.25       0.73      12.09
C       7.22      10.26      12.04
C       5.13       5.60      20.58
C       2.71       5.64      20.70
C       2.64       5.63      19.33
C       3.79       5.61      18.50
C       3.73       5.61      17.09
C       6.15       5.63      16.97
C       6.21       5.62      18.34
C       5.07       5.61      19.17
C       3.97       5.62      21.34
C       4.89       5.62      16.34
C       4.71       5.53       5.20
C       4.78       5.55       8.09
C       3.55       5.56       5.97
C       5.96       5.52       7.32
C       3.59       5.57       7.37
C       5.93       5.51       5.92
C       2.03       5.58       5.92
C       2.08       5.60       7.50
C       0.62       4.82       0.25
C       8.91       6.26       1.95
C       8.95       4.80       0.23
C       0.58       6.27       1.98
C       0.18       3.90      23.49
C       8.32       3.87      23.47
C       4.84       1.40       1.08
C       4.89       9.62       1.13
C       3.68       0.63       1.14
C       6.08      10.38       1.07
C       3.71      10.35       1.18
C       6.05       0.67       1.05
C       2.16       0.69       1.20
C       2.20      10.22       1.26
N       8.11       5.59      12.19
N       1.24       5.55      12.21
N       1.33       5.54       1.11
N       8.20       5.51       1.07
O       3.44       3.51      12.29
O       5.71       3.51      12.21
O       5.94       5.58      14.23
O       3.67       5.60      14.29
O       5.63       7.58      12.14
O       3.36       7.59      12.18
O       3.70       5.54      10.19
O       5.97       5.55      10.13
O       5.97       3.47       1.00
O       3.70       3.47       1.06
O       2.93       5.61      23.46
O       5.20       5.58      23.38
O       3.78       7.54       1.17
O       6.05       7.55       1.08
O       5.81       5.51       3.09
O       3.54       5.49       3.17
F       7.44       5.62      18.95
F       1.42       5.64      18.72
