66

Zn       2.54       4.70       8.63
Zn       5.35       4.74       8.68
H       5.59       3.18      12.60
C       3.93       2.15       8.75
C       3.89       4.47      12.70
C       3.75      -0.05       7.50
C       3.96       4.51       6.10
C       3.93       0.65       8.69
C       4.09      -0.13       9.84
C       3.95       9.47       9.79
C       3.78       8.77       8.58
C       3.57       9.57       7.46
C       3.31       9.52       5.97
C       3.56       0.10       6.00
C       3.08       4.96       3.74
C       8.28       3.54       8.61
C       8.22       5.72       9.04
C      -0.33       5.76       9.16
C       3.85       7.27       8.50
C      -0.32       3.56       8.69
C      -0.18       2.05       8.52
C       8.18       2.03       8.41
C       4.00       4.74      11.22
C       4.04       4.39       4.60
C       5.13       3.72       4.03
C       2.84       4.62      14.86
C       5.29       3.64       2.65
C       4.39       4.26       1.78
C       3.28       4.89       2.35
C       2.88       5.00      13.52
C       4.82       3.58      13.25
C       4.75       3.20      14.58
C       3.76       3.72      15.43
C       4.64       4.37       0.34
C       3.69       3.45      16.88
N       7.51       4.64       8.75
N       0.41       4.67       8.91
Cl       5.88       2.05      15.19
Cl       4.30       0.67      11.35
Cl       4.14       8.58      11.25
Cl       0.36       7.21       9.67
Cl       1.71       6.16      13.01
Cl       7.56       1.45       6.90
Cl       6.94       5.68       0.70
Cl       1.72       5.83       4.31
O       2.82       2.70       9.01
O       5.04       2.72       8.51
O       2.85       4.23       6.66
O       5.03       4.89       6.67
O       2.79       6.67       8.13
O       4.95       6.75       8.82
O       2.94       5.06      10.59
O       5.15       4.56      10.70
F       6.06       3.14       4.81
F       2.41       5.51       1.53
F       1.90       5.15      15.66
F       1.65       2.34      16.68
F       6.36       2.97       2.17
F       4.24       8.89       5.18
F       2.08       9.05       5.59
F       4.63       0.61       5.31
F       2.45       0.77       5.57
F       7.56       6.85       9.22
F       0.49       1.60       7.44
F       0.27       1.39       9.62
F       7.60       1.37       9.47
