105

Zn      -6.95       2.53      12.39
Zn      10.75       5.05       0.02
Zn       5.38       1.48      10.72
Zn      -1.54       6.07       1.64
H      -3.01      10.72       2.23
H       6.66      -3.29      10.31
H       5.72       3.40       7.97
H      -0.41       3.12       2.76
H      10.96       1.75       0.70
H      -5.84       4.88      10.25
H      -4.84      -1.96      12.33
H       6.68       0.38       8.01
H      -1.38      10.88       5.07
H       4.81      -1.52       6.72
H       8.43       5.98       2.09
H       4.50      -2.82       7.87
H       0.82       8.16       6.30
H       0.89       9.35       8.24
H       2.21      11.01       4.17
H       6.24      -1.95       4.28
H       7.25      -0.90       6.10
H       8.46      -2.17       6.29
H       2.56       9.81       7.85
H      -5.38       6.37       8.31
H       2.16       1.52       9.67
H       7.43       5.02       6.53
H      -4.30       7.04       6.29
H       8.03       6.28       4.80
H      -0.22      -2.50      10.97
H      -0.37       0.43      10.07
H      -2.58      -2.36      11.36
H      -2.56       0.26       9.75
H      11.70      -0.58       1.35
H      -0.51       0.41       2.40
H       7.21      11.19       1.01
H       0.01       7.04       4.41
H      -5.25      12.29       2.49
H       2.14      -2.26      11.76
H       0.06      10.79       2.25
H      -2.96       7.32       4.24
H       3.03       2.95      12.38
H      -4.83       1.76      10.08
C      -3.72      10.22       1.57
C       9.84       6.70       3.70
C       1.53      -0.45      10.57
C       0.24       9.22       3.85
C      -5.03       0.91      10.74
C       6.63      -2.27       9.93
C       6.48       3.63       8.71
C      -1.35       3.01       2.21
C      11.76       2.30       1.17
C      -6.73       4.40       9.87
C      -5.02      -0.98      11.88
C       9.42       6.28       2.42
C       6.64      -0.40       8.76
C      -4.29      -0.28      10.90
C       6.74      -1.80       8.62
C       7.56       4.53       8.62
C      12.89       1.82       1.87
C      -0.74      10.41       5.82
C       5.10      -2.55       6.98
C       1.38       9.09       6.13
C       1.37      11.26       4.83
C       0.57       9.96       5.11
C       2.39       0.61      10.22
C       6.61      -2.58       7.34
C       1.52       9.85       7.49
C       7.38      -1.99       6.14
C      -5.91       6.14       7.39
C       7.96       5.27       7.45
C      -5.32       6.67       6.18
C       9.08       6.59       4.92
C      -0.70      -1.57      10.66
C       0.10      -0.51      10.37
C      -2.14      -1.54      10.78
C      -0.05       7.86       3.69
C      -2.97      -0.53      10.39
C      12.73      -0.67       1.69
C      13.37       0.48       2.05
C       7.81      11.93       1.56
C       9.08      11.58       1.90
C       2.37      -1.32      11.28
C      -0.03       9.76       2.59
C      -3.70       6.96       3.53
C       9.45       9.50       0.42
C       9.82      10.45       1.39
C       2.67       8.71       5.56
N      -3.31       9.23       0.75
N       6.45      -1.24      10.78
N       6.47       3.02       9.91
N      -2.01       4.09       1.75
N      11.78       3.65       1.10
N      -7.38       3.50      10.63
N      -6.07      -0.24      12.29
N       6.46      -0.09      10.06
N      10.47       6.25       1.58
N       3.63       0.38      10.68
N      -0.46       7.61       2.43
N       3.62      -0.82      11.34
N      -0.45       8.80       1.74
N      -3.35       6.67       2.26
N      10.53       8.79       0.04
N      -6.07       0.93      11.59
N       3.70       8.41       5.11
Cl      -1.72       8.98       6.38
