164

Al       1.67      19.43      20.72
Al       5.01       6.44       6.96
Al       5.05      19.35      20.83
Al       1.63       6.49       6.89
H       4.75      10.26      12.34
H       1.90      15.54      15.40
H       1.37       2.67       1.50
H       5.28      23.23      26.14
H       2.19      10.28       1.76
H       4.72      15.44      26.02
H       5.56       2.64      12.09
H       1.35      23.33      15.53
H       2.03       8.75       3.67
H       4.73      16.90      24.04
H       5.40       4.18      10.18
H       1.36      21.87      17.50
H       3.97      11.16       4.54
H       4.69       9.98       5.70
H       2.95       9.88       5.26
H       3.01      18.37      25.69
H       2.01      19.13      24.40
H       3.74      18.79      24.10
H       0.59       1.77       9.31
H       1.31       2.94       8.14
H       6.32       3.05       8.58
H       6.39      20.40      15.85
H       5.39      19.65      17.15
H       0.36      19.98      17.45
H       3.91       8.60       0.61
H       4.90      11.86      27.24
H       3.17      12.23      27.53
H       2.96      14.10      24.10
H       2.05      13.14      25.32
H       3.78      13.52      25.59
H       0.53       4.33      13.24
H       1.52       3.26      14.30
H       6.55       2.89      14.02
H       6.34      24.67      17.44
H       5.42       1.98      16.22
H       0.40       1.60      15.96
H       4.73       8.60      10.46
H       1.94      17.18      17.30
H       1.35       4.33       3.39
H       5.31      21.59      24.24
H       1.96      11.50      11.19
H       4.72      14.27      16.59
H       5.34       1.43       2.66
H       1.34      24.50      24.96
H       1.96       9.76       9.38
H       4.72      15.98      18.42
H       5.34       3.16       4.47
H       1.34      22.79      23.13
H       3.27      17.80      21.47
H       3.37       8.09       6.36
H       6.65      20.98      20.07
H       6.75       4.83       7.49
C       3.36      21.12      22.45
C       3.33       4.82       5.16
C       6.73      17.65      19.10
C       6.71       8.11       8.69
C       3.40      20.80      18.81
C       3.29       4.93       8.80
C       0.03      17.97      22.74
C       6.67       7.99       5.05
C       1.21       9.99       2.13
C       5.67      15.73      25.56
C       4.59       2.94      11.72
C       2.29      23.05      15.99
C       1.12       9.17       3.24
C       5.67      16.59      24.48
C       4.50       3.75      10.61
C       2.30      22.18      17.06
C       6.65       8.87       3.85
C       0.11      17.08      23.92
C       3.27       4.05      10.00
C       3.49      21.70      17.62
C       5.46       9.38       3.26
C       1.34      16.64      24.48
C       2.09       3.54      10.59
C       4.72      22.14      17.07
C       5.54      10.09       2.05
C       1.34      15.64      25.47
C       2.16       2.83      11.80
C       4.71      23.13      16.07
C       0.04      10.45       1.50
C       0.12      15.20      26.05
C       3.42       2.47      12.35
C       3.50      23.57      15.49
C       0.10      11.30       0.36
C       0.13      14.27      27.12
C       3.47       1.63      13.49
C       3.51      24.50      14.43
C       5.60       9.23      10.65
C       1.07      16.55      17.12
C       2.22       3.70       3.20
C       4.44      22.22      24.42
C       5.61      10.15      11.68
C       1.05      15.64      16.08
C       2.23       2.77       2.17
C       4.43      23.14      25.47
C       6.73      10.98      11.88
C       6.69      14.80      15.89
C       3.35       1.94       1.97
C       3.31      23.97      25.66
C       1.10      10.85      11.04
C       5.57      14.92      16.74
C       4.47       2.08       2.81
C       2.20      23.85      24.81
C       1.10       9.89      10.03
C       5.58      15.87      17.76
C       4.47       3.03       3.82
C       2.20      22.91      23.79
C       6.72       9.09       9.82
C       6.71      16.67      17.97
C       3.34       3.83       4.03
C       3.33      22.10      23.58
C       6.70      13.79      14.82
C       6.72      11.99      12.95
C       3.32      24.99      26.73
C       3.34       0.93       0.90
C       3.95      10.12       4.90
C       2.84      18.44      24.61
C       0.58       2.81       8.95
C       6.22      20.34      16.94
C       4.08       9.64       0.28
C       2.84      13.89      25.18
C       0.70       3.29      13.57
C       6.22      24.88      16.37
N       0.99      12.89      12.99
N       5.69      12.89      14.79
N       4.36      23.69       0.86
N       2.31       2.23      26.76
N       0.97      13.80      13.94
N       5.70      11.97      13.84
N       4.35      24.97      27.61
N       2.32       0.95       0.01
O       4.49      20.43      19.36
O       2.19       5.30       8.29
O       1.11      18.35      22.18
O       5.56       7.62       5.56
O       2.23      20.81      21.94
O       4.46       5.14       5.65
O       5.61      17.96      19.61
O       1.08       7.79       8.20
O       2.23      20.49      19.22
O       4.44       5.27       8.36
O       5.61      18.29      22.32
O       1.07       7.65       5.49
O       1.12      18.08      19.45
O       5.56       7.70       8.31
O       4.50      20.69      22.10
O       2.18       5.22       5.54
O       3.34      18.57      20.89
O       3.33       7.28       6.88
O       6.72      20.20      20.66
O       6.71       5.65       6.97
O       4.22       9.21       3.81
O       2.56      17.12      24.07
O       0.84       3.71      10.04
O       5.94      21.65      17.47
O       4.38      10.48       1.41
O       2.53      15.10      25.90
O       1.01       2.45      12.43
O       5.90      23.67      15.65
