66

Zn       9.26       6.85       7.68
Zn       6.47       6.85       7.65
H      10.37      13.43       7.55
H      11.40       8.71       8.64
H       4.36       7.51       9.60
H      11.37       5.09       6.66
H       1.84       7.60       9.68
H      13.87       4.99       6.59
H       5.83       5.41      15.05
H       5.23       5.06       1.21
H       9.88       5.60       0.22
H      10.46       4.94      14.04
H       5.47       0.26       7.71
H       9.57       8.21       3.48
H       6.10       8.14      11.91
H       6.17       5.57       3.38
H       9.50       5.52      11.89
H       1.84       6.08       5.63
H      13.91       8.77       8.68
H       4.35       6.08       5.73
C       7.84       6.86       5.07
C      12.00       7.91       8.21
C       3.74       7.22       8.75
C      11.98       5.88       7.08
C       2.35       7.27       8.78
C      13.37       5.84       7.04
C       1.63       6.85       7.65
C      14.10       6.88       7.64
C       7.96       4.25       7.63
C       7.88       9.45       7.68
C       7.93      10.89       7.66
C       7.82       6.83      10.26
C       7.91       2.80       7.60
C       8.25      13.49       7.66
C       7.59       0.20       7.60
C       7.78       1.59       7.60
C       8.07      12.10       7.65
C       8.82       7.68       1.52
C       6.86       7.55      13.84
C       8.84       7.65       2.91
C       6.83       7.56      12.45
C       7.86       6.89       3.57
C       6.94       6.16       1.44
C       7.80       6.82      11.76
C       6.92       6.16       2.84
C       8.76       6.08      12.46
C       8.75       6.04      13.86
C       7.90       6.96       0.75
C       7.79       6.80      14.58
C       2.35       6.40       6.54
C      13.39       7.93       8.23
C       3.74       6.40       6.58
N       4.42       6.80       7.67
N      11.31       6.90       7.65
N       6.07       5.36       0.73
N       9.63       5.22      14.54
Cl      10.00       8.68       0.71
Cl       5.68       8.52      14.69
O       8.91       7.18       5.67
O       6.73       7.16       9.67
O       6.74       6.53       5.63
O       8.91       6.51       9.68
O       9.07       4.81       7.34
O       6.78       8.89       7.37
O       6.87       4.83       7.94
O       8.96       8.87       8.02
