412

Zn      13.02       1.33      25.19
Zn      13.05       1.34      22.32
Zn       3.47      11.23       6.54
Zn       3.49      11.26       3.67
Zn      18.45       5.47      30.76
Zn      18.43       5.45      33.63
Zn       8.90      15.37      12.11
Zn       8.87      15.36      14.98
H       1.92       2.50      21.94
H      17.17      11.64      21.58
H      15.89      12.06      25.65
H      18.34      14.97      17.35
H      15.19       9.67      25.68
H      17.07      14.11      19.69
H      16.50       1.38      16.91
H       2.30       2.87      15.31
H      16.53       9.25      21.61
H       4.41       2.76      21.93
H       8.82       1.30      21.63
H      13.64       5.64      21.67
H      14.15       3.36      20.18
H      18.85      11.42      15.28
H      14.85       5.22      25.76
H      14.61       7.92      21.60
H       3.60       9.49       9.42
H      17.84       8.47      11.40
H       6.21      15.16      25.66
H       6.33       1.34      21.63
H      13.80       4.57      18.01
H      14.96       6.09      16.40
H      18.96      12.34      13.00
H       8.69      15.34      25.63
H      15.85       7.49      25.70
H       6.36       2.18      25.86
H      18.21       9.01      15.64
H       8.85       2.15      25.84
H      17.15      13.05       8.57
H      17.30      12.83      11.26
H       2.59       3.46      12.50
H      16.48       4.23      11.73
H      16.30       3.33      13.26
H       4.55      14.04       8.44
H       4.81      13.63      11.29
H       1.65       0.21       3.29
H      14.51      12.49       2.93
H      14.57      11.15       7.00
H      20.57      14.67      36.00
H      12.09      11.11       7.03
H      16.86      11.74       1.04
H       6.99      16.50      35.56
H       4.65       2.43      33.95
H      12.03      12.52       2.96
H       2.56       2.55       3.28
H       2.33       7.19       2.98
H       7.79      10.68       3.02
H       5.73      11.78       1.53
H      17.29      16.11      33.93
H       7.70      11.96       7.11
H      10.25      11.01       2.95
H      11.38       1.92      28.07
H      14.18      15.91      30.05
H      14.99       1.00       7.01
H       1.70       4.77       2.98
H       9.35      13.06      36.66
H      11.11      13.77      35.05
H      18.20      15.97      31.65
H      15.82       3.34       6.98
H      10.16      12.32       7.05
H       2.52       4.58       7.21
H      14.80      16.13      34.29
H       3.15       6.99       7.19
H      18.41      14.03      27.22
H      18.23      14.24      29.91
H       5.29       2.55      31.15
H       9.72      15.74      30.38
H       8.81      15.80      31.91
H      16.02       1.62      27.09
H      15.69       1.98      29.93
H      20.27      16.49      34.00
H       7.41       4.21      34.37
H       7.35       5.55      30.30
H       1.35       2.03       1.30
H       9.84       5.59      30.26
H       5.06       4.96      36.25
H      14.94       0.20       1.74
H      17.27      14.28       3.34
H       9.89       4.19      34.34
H      19.36      14.15      34.02
H      19.60       9.51      34.31
H      14.14       6.02      34.28
H      16.20       4.92      35.77
H       4.64       0.59       3.36
H      14.22       4.74      30.19
H      11.68       5.69      34.35
H      10.54      14.79       9.23
H       7.74       0.79       7.25
H       6.93      15.70      30.28
H      20.22      11.93      34.31
H      12.58       3.64       0.63
H      10.81       2.93       2.25
H       3.73       0.73       5.65
H       6.10      13.36      30.32
H      11.76       4.38      30.24
H      19.41      12.12      30.08
H       7.13       0.57       3.01
H      18.78       9.71      30.11
H       3.52       2.67      10.07
H       3.69       2.46       7.39
H      16.63      14.15       6.15
H      12.20       0.97       6.92
H      13.12       0.90       5.39
H       5.91      15.08      10.21
H       6.24      14.72       7.36
H      20.01      14.20      15.35
H       4.75       5.06      15.72
H       6.03       4.64      11.65
H       3.58       1.73      19.95
H       6.73       7.03      11.61
H       4.86       2.59      17.60
H       5.43      15.32      20.38
H      19.62      13.83      21.99
H       5.39       7.45      15.69
H      17.51      13.94      15.37
H      13.10      15.40      15.66
H       8.29      11.06      15.63
H       7.77      13.34      17.12
H       3.08       5.28      22.01
H       7.07      11.48      11.54
H       7.31       8.78      15.70
H      18.33       7.21      27.88
H       4.09       8.23      25.90
H      15.71       1.54      11.63
H      15.60      15.36      15.67
H       8.12      12.13      19.28
H       6.97      10.61      20.90
H       2.97       4.37      24.30
H      13.23       1.36      11.67
H       6.07       9.21      11.60
H      15.56      14.52      11.44
H       3.71       7.69      21.66
H      13.07      14.56      11.46
H       4.78       3.65      28.72
H       4.62       3.88      26.04
H      19.33      13.24      24.80
H       5.44      12.48      25.57
H       5.62      13.37      24.03
H      17.38       2.66      28.86
H      17.12       3.07      26.01
C       2.53       2.08      22.74
C      16.55      12.01      23.61
C      15.70       1.28      23.79
C       1.88       1.41      23.79
C      16.73      11.21      22.47
C      16.87      13.48      23.59
C      16.03      11.43      24.77
C      15.79       9.28      23.64
C      10.48       1.60      23.76
C      15.07       2.89      17.55
C      13.58       3.90      23.75
C      16.91       5.49      14.74
C      18.13      15.47      18.28
C      15.65      10.09      24.78
C      17.49      15.07      19.43
C      18.41      10.47      12.04
C       8.98       1.71      23.74
C      16.14       2.41      16.79
C      16.32       4.57      15.71
C      15.30       7.89      23.65
C      16.76       3.24      15.87
C      16.36       9.86      22.49
C       3.91       2.20      22.73
C      14.17       5.28      23.72
C       8.27       1.51      22.55
C      17.63       7.23      13.76
C       4.69       1.66      23.77
C      14.13       6.05      22.54
C       6.17       1.75      23.75
C      13.98       2.39      19.72
C      18.63      10.77      14.44
C      14.80       5.82      24.85
C      14.69       7.33      22.51
C      18.59      10.53       9.54
C      18.09       9.12      12.23
C      18.03       8.61      13.54
C       6.72      15.66      24.84
C       6.88       1.54      22.55
C      14.65       4.22      17.43
C      15.28       5.05      16.52
C      18.69      11.29      13.15
C       8.10      15.77      24.82
C      15.35       7.10      24.82
C       6.89       1.98      24.93
C      18.29       9.44      14.64
C       8.28       1.97      24.92
C      18.05      12.66       9.06
C      18.13      12.50      10.62
C      16.96       3.98      12.68
C      19.28      13.55       9.20
C      19.38      13.36      10.53
C       1.40       0.92       4.09
C      14.71      11.80       4.96
C       4.13      13.82       5.15
C       0.59       0.47       5.14
C      13.98      12.18       3.82
C      16.21      11.72       4.94
C      14.00      11.45       6.12
C      11.87      11.79       4.99
C       3.05       8.71       5.11
C       8.06      14.73      36.20
C       6.09      11.09       5.10
C      11.05      15.82      33.39
C      21.00      14.34      36.93
C      12.61      11.44       6.14
C      17.90      11.89       0.78
C      16.25      15.94      30.69
C       2.76       7.24       5.09
C       7.88      15.89      35.44
C      10.01      15.49      34.36
C      10.39      11.68       5.00
C       8.85      16.26      34.52
C      12.58      12.18       3.84
C       1.89       2.22       4.08
C       7.58      11.29       5.07
C       2.38       6.60       3.90
C      12.92      16.04      32.41
C       1.58       3.11       5.12
C       8.31      11.05       3.89
C       2.05       4.51       5.10
C       4.75      11.87       1.07
C      16.60      16.07      33.08
C       8.27      11.76       6.20
C       9.69      11.24       3.86
C      16.36      16.10      28.18
C      14.87      15.99      30.88
C      14.36      16.06      32.19
C      15.61       1.35       6.19
C       2.04       5.25       3.90
C       9.23      13.97      36.08
C      10.20      14.36      35.17
C      17.12      15.99      31.80
C      16.09       2.65       6.17
C       9.65      11.95       6.17
C       2.47       5.15       6.28
C      15.23      16.10      33.29
C       2.82       6.49       6.27
C      18.28      15.01      27.71
C      18.14      15.13      29.27
C       9.61      16.26      31.33
C      19.45      15.95      27.85
C      19.30      16.11      29.18
C      20.52      15.78      33.21
C       7.22       4.90      32.34
C      17.79       2.88      32.15
C      21.33      16.23      32.16
C       7.95       4.52      33.47
C       5.72       4.98      32.35
C       7.92       5.25      31.18
C      10.05       4.91      32.31
C      18.87       7.99      32.19
C      13.86       1.97       1.10
C      15.83       5.61      32.20
C      10.87       0.88       3.91
C       0.92       2.37       0.37
C       9.31       5.26      31.16
C       4.02       4.81      36.52
C       5.67       0.76       6.61
C      19.16       9.46      32.21
C      14.05       0.81       1.86
C      11.91       1.21       2.94
C      11.53       5.02      32.30
C      13.07       0.44       2.78
C       9.34       4.52      33.45
C      20.03      14.48      33.22
C      14.34       5.41      32.23
C      19.55      10.10      33.40
C       9.00       0.66       4.89
C      20.34      13.59      32.18
C      13.61       5.65      33.40
C      19.87      12.19      32.20
C      17.18       4.83      36.23
C       5.32       0.63       4.21
C      13.65       4.95      31.10
C      12.23       5.46      33.44
C       5.56       0.61       9.11
C       7.05       0.71       6.41
C       7.56       0.64       5.11
C       6.32      15.35      31.11
C      19.89      11.45      33.39
C      12.70       2.73       1.22
C      11.72       2.34       2.13
C       4.80       0.71       5.50
C       5.84      14.05      31.12
C      12.28       4.75      31.13
C      19.45      11.55      31.02
C       6.70       0.60       4.01
C      19.10      10.21      31.02
C       3.65       1.69       9.59
C       3.78       1.57       8.03
C      12.31       0.44       5.97
C       2.47       0.75       9.45
C       2.63       0.59       8.12
C      19.40      14.63      14.56
C       5.37       4.69      13.69
C       6.23      15.42      13.50
C      20.04      15.29      13.51
C       5.19       5.49      14.82
C       5.05       3.22      13.71
C       5.90       5.27      12.53
C       6.13       7.42      13.66
C      11.44      15.10      13.54
C       6.85      13.81      19.75
C       8.34      12.80      13.55
C       5.01      11.21      22.56
C       3.80       1.23      19.02
C       6.27       6.61      12.51
C       4.44       1.63      17.87
C       3.51       6.23      25.25
C      12.94      14.99      13.56
C       5.79      14.30      20.51
C       5.60      12.13      21.59
C       6.63       8.81      13.65
C       5.17      13.46      21.43
C       5.56       6.84      14.81
C      18.01      14.50      14.57
C       7.75      11.42      13.58
C      13.66      15.19      14.75
C       4.30       9.47      23.54
C      17.23      15.04      13.53
C       7.79      10.65      14.75
C      15.76      14.95      13.55
C       7.95      14.31      17.58
C       3.30       5.93      22.86
C       7.12      10.88      12.45
C       7.24       9.37      14.79
C       3.33       6.17      27.76
C       3.83       7.58      25.06
C       3.89       8.09      23.76
C      15.21       1.05      12.46
C      15.05      15.16      14.74
C       7.28      12.49      19.87
C       6.64      11.65      20.78
C       3.23       5.41      24.15
C      13.82       0.93      12.47
C       6.57       9.60      12.48
C      15.03      14.72      12.37
C       3.63       7.26      22.66
C      13.64      14.73      12.37
C       3.87       4.04      28.24
C       3.79       4.20      26.68
C       4.97      12.72      24.61
C       2.65       3.16      28.09
C       2.54       3.35      26.77
N      18.41      11.33       8.53
N      14.41       2.04      18.48
N      13.38       1.37      20.31
N      17.17       5.20      13.43
N      17.62       6.30      12.79
N      17.19       6.77      14.97
N      18.39      11.07      10.77
N      17.09      15.71      27.18
N       7.06      14.32      37.13
N       3.60      11.57       1.66
N      10.85      16.14      32.07
N      12.03      16.28      31.44
N      12.37      15.74      33.62
N      16.82      15.76      29.42
N       4.84       0.99      10.12
N      14.86       2.38       0.17
N      18.32       5.13      35.63
N      11.08       0.56       5.22
N       9.89       0.42       5.86
N       9.56       0.96       3.68
N       5.10       0.95       7.88
N       3.51       5.37      28.77
N       7.52      14.67      18.82
N       8.54      15.33      16.99
N       4.75      11.50      23.87
N       4.30      10.40      24.51
N       4.73       9.93      22.33
N       3.54       5.64      26.53
O      17.22      14.02      22.48
O      11.05       1.30      22.66
O      13.12       3.42      22.66
O      15.11       1.49      22.68
O      16.76      14.10      24.70
O      13.61       3.29      24.87
O      19.20      15.72      24.89
O      11.06       1.79      24.87
O      16.81      11.91       3.84
O       2.92       9.34       4.01
O       5.51      10.77       4.01
O       4.18      13.20       4.04
O      16.78      11.45       6.05
O       5.51      11.28       6.22
O      18.99      13.37       6.24
O       3.39       9.22       6.23
O       5.11       4.79      33.46
O      19.01       7.36      33.29
O      16.41       5.93      33.29
O      17.74       3.50      33.26
O       5.15       5.25      31.25
O      16.41       5.42      31.08
O       2.94       3.34      31.06
O      18.53       7.48      31.07
O       4.70       2.69      14.81
O      10.87      15.40      14.64
O       8.80      13.28      14.64
O       6.81      15.21      14.61
O       5.16       2.60      12.60
O       8.32      13.41      12.43
O       2.72       0.98      12.41
O      10.87      14.91      12.42
