228

H       6.85       9.20       4.20
H       3.03       3.56       6.87
H       8.39      16.32      17.94
H      12.20      21.97      15.27
H       8.14      10.78       2.79
H       4.33       1.98       8.29
H       7.10      14.74      19.36
H      10.91      23.55      13.86
H       4.42      12.39       1.28
H      12.05      22.29       9.79
H      10.82      13.14      20.86
H       3.19       3.24      12.36
H       3.16      10.85       2.73
H       6.98       1.91       8.34
H      12.08      14.68      19.41
H       8.26      23.61      13.80
H       6.39      13.03       0.39
H       6.38      21.64      10.68
H       8.85      12.50      21.76
H       8.86       3.88      11.46
H       6.89      16.36      21.76
H      10.71      21.93      11.45
H       8.35       9.17       0.38
H       4.53       3.60      10.69
H       7.63      17.75      19.77
H      11.45      20.54      13.44
H       7.60       7.78       2.37
H       3.79       4.99       8.70
H      11.48      19.37      19.36
H       7.66      18.92      13.86
H       3.76       6.15       2.79
H       7.58       6.61       8.28
H      10.62      18.20      21.33
H       6.80      20.10      11.89
H       4.62       7.33       0.81
H       8.44       5.43      10.26
H       4.64      14.44      13.56
H       8.45      23.85      19.65
H      10.59      11.08       8.58
H       6.79       1.68       2.49
H       5.11      12.65      11.90
H       5.11       3.73      21.31
H      10.12      12.88      10.24
H      10.12      21.80       0.83
H       6.23      15.64       9.00
H       6.23      19.04       2.07
H       9.00       9.89      13.14
H       9.00       6.49      20.07
H       5.75      17.42      10.69
H       5.76      17.26       0.38
H       9.49       8.11      11.46
H       9.48       8.27      21.76
H       5.21      10.55       8.50
H       1.40       2.21       2.58
H      10.02      14.97      13.65
H      13.84      23.32      19.57
H       5.91       8.37       7.51
H       2.09       4.39       3.56
H       9.33      17.15      14.63
H      13.14      21.14      18.58
H       9.28      10.03       5.76
H       5.47       2.74       5.32
H       5.96      15.50      16.39
H       9.77      22.79      16.83
H       8.69      12.35       6.64
H       8.68      22.33       4.43
H       6.55      13.18      15.50
H       6.56       3.19      17.71
H       5.78      12.05       9.85
H       1.97       0.71       1.22
H       9.46      13.48      12.29
H      13.26      24.81      20.92
Pb       2.82       6.96       6.21
Pb       6.64       5.80       4.87
Pb      12.42      18.56      15.94
Pb       8.60      19.73      17.28
C       4.17       8.94       4.39
C       7.99       3.83       6.68
C      11.07      16.59      17.75
C       7.25      21.70      15.46
C       4.92       9.91       3.55
C       8.74       2.86       7.52
C      10.31      15.62      18.59
C       6.49      22.67      14.62
C       6.32       9.91       3.56
C       2.51       2.85       7.51
C       8.91      15.62      18.58
C      12.73      22.67      14.63
C       7.06      10.78       2.76
C       3.24       1.98       8.31
C       8.18      14.74      19.38
C      11.99      23.55      13.84
C       6.37      11.67       1.91
C       6.36      23.01       9.16
C       8.87      13.86      20.23
C       8.88       2.52      12.98
C       4.96      11.69       1.92
C      12.59      22.99       9.15
C      10.27      13.84      20.22
C       2.65       2.54      12.99
C       4.25      10.82       2.74
C       8.07       1.94       8.34
C      10.99      14.70      19.41
C       7.17      23.59      13.81
C      12.52      17.13      21.73
C       8.70      21.16      11.49
C       2.72       8.40       0.42
C       6.54       4.37      10.66
C       6.20      17.04      21.27
C      10.02      21.25      11.95
C       9.03       8.49       0.88
C       5.22       4.28      10.20
C       6.63      17.77      20.18
C      10.45      20.52      13.04
C       8.61       7.76       1.97
C       4.79       5.01       9.11
C      12.10      18.71      19.95
C       8.29      19.58      13.27
C       3.13       6.81       2.20
C       6.95       5.95       8.88
C      11.66      18.01      21.05
C       7.84      20.28      12.17
C       3.58       7.52       1.10
C       7.40       5.25       9.98
C       4.94      17.10      13.28
C       8.75      21.19      19.94
C      10.30       8.42       8.87
C       6.49       4.34       2.21
C       5.16      16.05      12.23
C       8.97      22.24      20.98
C      10.08       9.48       9.91
C       6.27       3.29       1.16
C       4.97      14.70      12.55
C       8.78      23.59      20.66
C      10.27      10.83       9.59
C       6.46       1.93       1.49
C       5.24      13.70      11.63
C       9.05      24.59      21.58
C      10.00      11.83      10.52
C       6.19       0.93       0.56
C       5.71      14.03      10.34
C       5.71      20.65       0.73
C       9.53      11.49      11.80
C       9.53       4.88      21.42
C       5.88      15.38       9.99
C       5.88      19.29       1.08
C       9.36      10.14      12.15
C       9.36       6.23      21.07
C       5.61      16.37      10.94
C       5.61      18.31       0.13
C       9.63       9.16      11.20
C       9.63       7.22      22.01
C       6.71      12.99       8.29
C       6.70      21.69       2.77
C       8.53      12.54      13.85
C       8.53       3.84      19.37
C       6.96      11.64       7.71
C       3.15       1.13       3.36
C       8.28      13.89      14.43
C      12.09      24.40      18.79
C       6.15      10.51       7.94
C       2.34       2.25       3.13
C       9.09      15.02      14.20
C      12.90      23.28      19.01
C       6.50       9.28       7.42
C       2.69       3.48       3.66
C       8.74      16.24      14.73
C      12.55      22.05      18.49
C       8.41      10.24       6.39
C       4.60       2.53       4.68
C       6.82      15.29      15.76
C      10.64      23.00      17.46
C       8.07      11.48       6.88
C       4.26       1.29       4.19
C       7.17      14.05      15.26
C      10.98      24.24      17.96
C       8.36      12.64       0.74
C       8.34      22.04      10.33
C       6.88      12.89      21.40
C       6.89       3.49      11.81
N       7.01      12.53       1.01
N       7.00      22.15      10.06
N       8.22      13.00      21.14
N       8.23       3.38      12.08
N      13.39      18.57      19.50
N       9.57      19.72      13.71
N       1.85       6.96       2.64
N       5.66       5.81       8.43
N       5.99      12.97       9.47
N       5.99      21.71       1.59
N       9.25      12.56      12.67
N       9.25       3.82      20.55
N       7.65       9.15       6.69
N       3.83       3.61       4.38
N       7.59      16.38      15.45
N      11.40      21.91      17.76
O       2.91       9.06       4.51
O       6.73       3.71       6.56
O      12.33      16.47      17.63
O       8.51      21.82      15.58
O       4.82       7.99       4.96
O       8.64       4.77       6.11
O      10.41      17.54      17.18
O       6.59      20.75      16.03
O       9.23      12.04       1.37
O       9.22      22.64       9.70
O       6.00      13.48      20.77
O       6.01       2.89      12.44
O       6.14      19.19      18.42
O       9.95      19.10      14.79
O       9.10       6.34       3.72
O       5.29       6.43       7.35
O      12.06      16.69      14.38
O       8.24      21.60      18.83
O       3.18       8.84       7.76
O       7.00       3.93       3.32
O       5.29      18.30      13.06
O       9.10      19.99      20.15
O       9.95       7.22       9.08
O       6.14       5.54       1.99
O       7.15      14.01       7.77
O       7.15      20.66       3.30
O       8.08      11.51      14.37
O       8.08       4.86      18.85
O       8.00       7.96       6.26
O       4.18       4.81       4.81
O       7.24      17.57      15.88
O      11.05      20.72      17.33
