46

Al      -3.02       4.42       6.06
Al       0.30       4.43       6.09
H      -1.39       5.21       7.63
H       1.93       2.79       5.59
H      -0.23       7.36       4.50
H       3.20       1.74       4.33
H       0.41       0.26       6.81
H      -2.67       8.32       6.69
H      -2.20       7.70       3.38
H       1.23       1.70       3.23
C       2.02       6.81       5.84
C       1.93       4.29       8.49
C      -1.43       2.00       6.04
C      -1.31       4.63       3.69
C      -3.69       4.43      10.88
C       4.30       4.56       1.31
C       1.98       4.06       9.94
C      -1.36       4.91       2.25
C       4.64       5.03       0.02
C      -4.02       3.97      12.18
C       2.04       8.29       5.75
C       0.98       9.04       5.15
C      -3.48       8.93       6.28
C      -0.13       8.44       4.49
C      -1.08       9.19       3.83
C      -1.47       0.53       5.83
C      -0.43      -0.23       6.34
C       4.06      -0.08       5.15
C       3.09       0.66       4.43
C       2.03       0.06       3.79
S       0.66       3.17      10.65
S      -0.04       5.81       1.55
Cl      -2.28       5.35      10.58
Cl       2.89       3.63       1.58
O       3.13       6.21       5.64
O       0.78       4.13       7.95
O      -0.30       2.59       5.92
O      -2.39       4.26       4.25
O      -2.52       2.58       6.34
O      -0.18       4.80       4.26
O       0.93       6.23       6.16
O      -3.62       4.61       7.90
O      -1.36       5.01       6.68
O       1.95       3.76       5.54
O      -2.15       8.66       3.18
O       1.08       0.74       3.09
