52

Al       1.98      19.44       6.85
H       1.70       1.80       0.51
H       2.94      10.36       8.07
H       3.60      15.23      12.01
H       4.20      15.38       7.07
H       4.04      13.18       8.24
H       2.48       5.95      10.33
H       2.88       8.01      11.68
H       3.30       5.57       3.34
H       3.50       5.70       0.85
C       2.28       3.62       4.82
C       3.98      17.82       8.08
C       2.31       5.72       7.68
C       2.39       3.62       3.32
C       2.47       7.00       8.45
C       3.97      16.54       8.87
C       1.93       2.58       2.50
C       2.06       2.63       1.12
C       2.61       8.25       7.84
C       2.85       9.40       8.58
C       3.83      16.47      10.26
C       3.75      15.25      10.93
C       4.07      15.34       8.15
C       3.99      14.11       8.81
C       2.57       6.92       9.85
C       2.80       8.07      10.60
C       2.95       4.75       2.71
C       3.07       4.82       1.33
C       2.64       3.75       0.52
C       3.21      11.59      12.79
C       2.94       9.32       9.97
C       3.15      10.54      10.77
C       3.80      14.06      10.20
C       3.59      12.77      10.88
N       3.00      10.45      12.10
N       3.44      11.68      10.11
N       3.51      12.77      12.22
N       2.98      16.97       3.09
N       3.68      17.70      11.07
N       2.42       8.39       6.38
O       1.32       4.99       7.99
O       1.31       4.29       5.30
O       3.04      17.92       7.24
O       3.22       5.43       6.85
O       4.95      18.63       8.24
O       4.93      18.65       5.48
O       3.02      16.86       4.32
O       2.41      16.18       2.32
O       3.19      18.69      10.50
O       4.03      17.65      12.25
O       1.67       7.56       5.84
O       2.99       9.33       5.82
