102

Cu       4.10       8.60      13.16
Cu       7.22       0.69       1.06
Cu      -2.43      12.41       7.11
Cu      -2.43       1.53      14.22
H       5.11       7.07      10.82
H       6.20       2.22       3.40
H       3.55       7.01      10.73
H       7.76       2.28       3.49
H       2.07      -1.68       7.58
H       9.24       1.67      12.71
H       9.24      10.97       6.64
H       2.07       7.62       1.51
H       3.98      -1.79       5.55
H       7.34       3.49      13.62
H       7.34      11.07       8.67
H       3.98       5.80       0.59
H      -1.27      11.96       4.24
H      12.58      10.21       1.56
H      12.58      -2.68       9.98
H      -1.27      -0.92      12.66
H       4.24      -1.32       3.23
H       7.07       5.80      14.13
H       7.07      10.61      10.99
H       4.24       3.49       0.09
H       1.07       5.53      13.90
H      10.24      -1.21       3.57
H      10.24       3.75       0.32
H       1.07      10.50      10.65
H       0.15      10.66       2.96
H      11.16      10.86       3.27
H      11.16      -1.37      11.26
H       0.15      -1.57      10.95
C       2.00      -2.07       6.58
C       9.31       2.43      13.48
C       9.31      11.36       7.64
C       2.00       6.86       0.74
C       2.95      -2.12       5.58
C       8.37       3.33      13.91
C       8.37      11.41       8.64
C       2.95       5.96       0.30
C      -0.55      12.45       4.88
C      11.86       9.82       0.86
C      11.86      -3.16       9.34
C      -0.55      -0.53      13.36
C       1.30      12.48       3.23
C      10.01      11.34       1.49
C      10.01      -3.19      10.98
C       1.30      -2.05      12.73
C       2.27      13.32       2.70
C       9.05      12.17       0.93
C       9.04      -4.03      11.52
C       2.27      -2.88      13.29
C       2.79      13.05       1.43
C       8.52      13.22       1.69
C       8.52      -3.76      12.79
C       2.79      -3.93      12.52
C       2.31      11.96       0.68
C       9.00      13.47       2.99
C       9.00      -2.67      13.53
C       2.31      -4.18      11.23
C       1.34      11.12       1.23
C       9.97      12.63       3.54
C       9.97      -1.83      12.99
C       1.34      -3.34      10.68
C       0.86      11.36       2.52
C      10.45      11.54       2.80
C      10.45      -2.07      11.70
C       0.86      -2.26      11.42
C       3.85      13.95       0.87
C       7.46      14.09       1.09
C       7.46      -4.66      13.34
C       3.85      -4.80      13.13
C       0.80       9.96       0.43
C      10.51      12.90       4.93
C      10.51      -0.67      13.79
C       0.80      -3.61       9.29
N       0.84      -2.67       6.12
N      10.47       2.61      14.21
N      10.47      11.96       8.10
N       0.84       6.68       0.01
N       0.73      12.76       4.51
N      10.59      10.29       0.72
N      10.59      -3.47       9.71
N       0.73      -1.00      13.50
O       5.83      -0.60       1.62
O       5.49       7.56      14.11
O       5.49       9.89      12.59
O       5.83       1.73       0.10
O       2.69       7.44      13.94
O       8.63      -0.48       1.80
O       8.63       1.85       0.28
O       2.69       9.77      12.41
O      -0.56       3.62      13.43
O      11.87      -1.56       5.51
O      11.87       5.67       0.78
O      -0.56      10.85       8.71
O       0.05       9.14       1.12
O      11.26      11.93       5.39
O      11.26       0.15      13.09
O       0.05      -2.64       8.82
O       4.30       7.35      11.25
O       7.02       1.94       2.96
