200

Cu       6.98      12.27       9.33
Cu      11.47       9.84       7.27
Cu       6.04       8.74       8.56
Cu       1.55      11.17      10.63
Cu       3.80      11.09       8.26
Cu       9.23       9.92       9.64
Cu       9.23      12.35       6.78
Cu       3.80       8.66      11.12
H       2.44      12.12      13.76
H       5.16       5.49       8.12
H      10.59       8.89       4.13
H       7.87      15.52       9.78
H       7.28      13.10      12.53
H      11.18       6.55       6.96
H       5.75       7.91       5.36
H       1.85      14.46      10.94
H       2.32      12.98      17.64
H       5.28       1.53       7.89
H      10.71       8.03       0.26
H       7.75      19.48      10.01
H       1.62      10.40       1.47
H       5.97      17.91       7.86
H      11.40      10.61      16.43
H       7.05       3.10      10.04
H       2.37       9.04       0.60
H       5.23      18.98       9.07
H      10.66      11.97      17.29
H       7.80       2.03       8.83
H       4.44      16.05      17.52
H       3.16       1.16       4.83
H       8.59       4.96       0.38
H       9.87      19.84      13.06
H       2.17      12.77       0.89
H       5.43      18.10       5.43
H      10.86       8.24      17.01
H       7.60       2.91      12.47
H       2.88      15.32      17.06
H       4.72       1.73       5.49
H      10.15       5.69       0.83
H       8.31      19.28      12.41
H       9.27      13.97      17.79
H       9.19       1.22       6.94
H       3.76       7.04       0.10
H       3.84      19.79      10.96
H       8.90      13.63      16.06
H       9.56       2.98       6.99
H       4.13       7.38       1.83
H       3.47      18.03      10.91
H       8.40      12.49      17.33
H      10.06       1.92       8.32
H       4.63       8.52       0.57
H       2.97      19.09       9.58
H       8.19      16.20      17.61
H      10.27       1.05       4.70
H       4.84       4.80       0.29
H       2.76      19.96      13.20
H       6.52      16.39      17.02
H       1.08       1.60       4.42
H       6.51       4.62       0.88
H      11.95      19.41      13.48
H       7.80      15.90      15.88
H      10.66       2.80       4.73
H       5.23       5.11       2.01
H       2.37      18.21      13.17
H       3.39      11.00       4.99
H       4.21      14.33       7.83
H       9.64      10.01      12.91
H       8.82       6.68      10.06
H       8.21      11.95       3.67
H      10.25      15.49       6.69
H       4.82       9.06      14.23
H       2.78       5.52      11.21
C       5.31      12.44      11.84
C       2.28       7.35       7.50
C       7.71       8.57       6.06
C      10.74      13.66      10.40
C       3.96      12.16      12.19
C       3.64       7.04       7.83
C       9.07       8.85       5.71
C       9.39      13.97      10.07
C       3.47      12.33      13.48
C       4.12       5.74       7.87
C       9.55       8.68       4.41
C       8.90      15.27      10.03
C       4.39      12.80      14.44
C       3.21       4.71       7.56
C       8.64       8.21       3.45
C       9.82      16.29      10.34
C       5.77      13.07      14.09
C       1.83       5.02       7.23
C       7.26       7.94       3.81
C      11.20      15.98      10.66
C       6.24      12.89      12.77
C       1.36       6.35       7.20
C       6.79       8.12       5.12
C      11.67      14.66      10.69
C       4.81      13.50      16.60
C       2.79       2.47       7.20
C       8.22       7.50       1.29
C      10.24      18.54      10.69
C       3.17      11.01       0.07
C       4.43      19.19       7.04
C       9.86      10.00      17.82
C       8.60       1.82      10.86
C       4.26      11.09       1.14
C       3.34      18.13       7.13
C       8.77       9.92      16.76
C       9.69       2.88      10.77
C       5.64      11.32       0.78
C       1.96      18.44       6.84
C       7.39       9.69      17.12
C      11.07       2.57      11.05
C       7.20      14.30      17.24
C      11.26       1.72       6.52
C       5.83       6.71       0.66
C       1.77      19.29      11.38
C       6.19      13.74      16.25
C       1.41       2.78       6.91
C       6.84       7.26       1.64
C      11.62      18.23      10.99
C       2.02      10.08       0.50
C       5.57      18.91       8.03
C      11.00      10.93      17.40
C       7.45       2.10       9.87
C       3.67      15.33      17.82
C       3.93       0.98       5.60
C       9.36       5.68       0.07
C       9.10      20.03      12.30
C       8.54      13.55      17.09
C       9.92       1.98       7.23
C       4.49       7.46       0.80
C       3.11      19.03      10.66
C       7.44      15.80      16.92
C      11.02       1.80       4.98
C       5.59       5.21       0.98
C       2.01      19.21      12.91
C       4.82      11.22       3.37
C       2.78      15.89       7.36
C       8.21       9.79      14.52
C      10.25       5.11      10.54
C       4.42      11.20       4.72
C       3.17      14.57       7.59
C       8.60       9.81      13.17
C       9.85       6.44      10.31
C       5.41      11.49       5.67
C       2.19      13.59       7.46
C       7.62       9.52      12.23
C      10.84       7.42      10.44
C       6.76      11.76       5.30
C      11.70      13.91       7.12
C       6.27       9.24      12.60
C       1.33       7.10      10.77
C       7.18      11.75       3.98
C      11.28      15.21       6.93
C       5.85       9.26      13.92
C       1.75       5.79      10.97
C       6.20      11.49       3.01
C       1.40      16.21       7.04
C       6.83       9.52      14.89
C      11.63       4.80      10.86
N       5.45      12.17      10.50
N       2.15       8.71       7.56
N       7.58       8.84       7.40
N      10.88      12.30      10.34
N       4.25      11.73      10.06
N       3.34       9.21       7.91
N       8.77       9.28       7.84
N       9.68      11.80       9.98
N       3.34      11.73      11.04
N       4.26       8.24       8.07
N       9.69       9.28       6.86
N       8.77      12.76       9.82
N       3.96      13.03      15.72
N       3.64       3.42       7.53
N       9.07       7.98       2.18
N       9.39      17.59      10.37
N       6.63      13.53      15.03
N       0.96       4.02       6.93
N       6.39       7.48       2.86
N      12.06      16.99      10.96
N       3.88      11.03       2.40
N       3.71      16.89       7.39
N       9.14       9.98      15.50
N       9.31       4.12      10.51
N       6.56      11.51       1.70
N      11.90      17.50       6.81
N       6.47       9.50      16.20
N       1.13       3.51      11.09
N       5.34      11.58       7.03
N       2.26      12.22       7.58
N       7.69       9.43      10.86
N      10.77       8.79      10.32
N       6.55      11.91       7.47
N      11.91      11.74       7.33
N       6.48       9.10      10.42
N       1.12       9.27      10.57
N       7.43      12.02       6.46
N      11.02      12.72       7.05
N       5.59       8.99      11.44
N       2.00       8.29      10.84
