232

Zn       7.45       8.97      15.51
Zn      27.08      10.71      18.22
Zn       8.88      11.86      15.62
Zn      25.33      11.66      15.71
Zn      18.28       7.22       8.82
Zn      16.73       4.43       8.61
Zn      18.63       5.39       6.21
Zn      19.96       4.47       8.96
Zn      16.22      16.20      22.41
Zn      17.63      15.41      25.17
Zn      15.79      18.01      25.03
Zn      14.45      15.09      24.84
Zn      17.63       4.85      31.90
Zn      14.43       4.87      31.83
Zn      24.64      19.75      31.76
Zn      18.39      17.56       1.97
H      22.84       5.76      11.67
H      20.75       9.48      11.26
H      24.46       6.87      13.23
H      11.44      13.40      22.57
H      13.95      14.59      19.30
H       9.82      12.41      20.93
H      13.24       5.57      11.17
H      19.42      14.77      19.78
H      16.15      19.60      19.46
H      28.87      18.30      11.10
H      12.37       1.32       4.89
H      14.35       3.04       1.50
H      14.05       2.41       6.40
H      18.27      14.12       4.80
H       4.86       2.87       1.51
H      22.01      17.70      29.31
H      11.44       3.83      29.11
H      20.31      16.76      27.73
H      14.00       8.49      29.30
H      20.97       3.63      29.29
H      21.45      11.42      12.21
H      23.15      11.61      12.71
H      21.94      11.20      13.91
H      11.75      14.26      16.69
H      12.51      12.68      16.76
H      13.48      14.13      17.13
H      17.32       3.92       2.88
H      16.37       5.36       3.16
H      16.12       4.43       1.66
H      17.06      20.61      27.77
H       9.40       3.26      26.33
H       9.66       4.25      27.79
H      13.56      11.13      13.06
H      23.98      12.27      22.53
H       7.21       7.15      22.14
H      23.69      15.88      12.56
H      18.46       8.89       2.09
H       4.90       1.87       7.31
H      19.12      11.15      28.11
H      29.57      15.59      27.85
C       7.34       7.74      18.18
C       9.93      12.34      18.32
C      10.10       9.51      14.32
C      26.70      13.69      14.11
C      24.49       9.34      14.11
C      24.59      12.21      18.54
C      15.68       6.71      10.16
C      16.12       3.90       5.78
C      18.32       8.32       6.07
C      21.27       4.06       6.36
C      20.71       6.92      10.46
C      18.21       2.31      10.03
C      18.85      14.84      22.56
C      18.25      17.92      26.63
C      16.08      19.15      22.31
C      13.16      17.37      26.21
C      13.77      14.63      21.98
C      16.12      13.26      26.46
C      16.08       6.93      30.49
C      22.13      20.23      30.25
C      27.25      20.14      30.45
C      18.38      14.60       1.98
C      12.28       1.46       2.19
C       7.20       1.33       2.10
C      23.49       8.78      13.14
C      21.69       7.56      11.39
C      22.44       9.56      12.59
C      22.74       6.81      11.93
C      21.56       8.91      11.71
C      23.63       7.43      12.80
C      10.96      12.96      19.20
C      12.79      14.05      21.02
C      12.14      13.58      18.70
C      11.62      13.44      21.49
C      13.03      14.11      19.64
C      10.73      12.90      20.59
C      12.40       9.61      13.15
C      13.47       6.60      11.44
C      11.23       8.97      13.56
C      14.61       7.25      11.01
C      12.66       7.46      12.23
C      13.22       8.74      12.39
C      23.38      12.72      20.78
C      20.16      14.35      20.44
C      23.53      12.75      19.39
C      20.00      14.32      21.81
C      21.39      13.77      20.06
C      22.15      13.31      21.16
C       7.30       6.41      20.38
C       7.48       2.80      20.11
C       7.34       6.53      18.99
C       7.45       2.70      21.49
C       7.42       4.15      19.70
C       7.34       5.05      20.78
C      25.58      15.58      12.74
C      27.84      17.99      11.26
C      26.67      14.87      13.25
C      26.77      18.71      10.77
C      27.41      16.84      11.96
C      26.01      16.71      12.00
C      15.15       3.31       4.79
C      13.27       2.11       3.10
C      15.26       3.51       3.40
C      13.17       1.93       4.49
C      14.30       2.90       2.58
C      14.11       2.53       5.32
C      18.35       9.64       3.85
C      18.30      13.25       4.14
C      18.30       9.52       5.24
C      18.35      13.36       2.77
C      18.29      11.89       4.54
C      18.34      11.00       3.46
C       3.86       2.76       5.98
C       5.03       2.60       2.55
C       2.76       3.52       5.57
C       6.12       1.85       2.95
C       4.20       2.93       3.65
C       4.69       2.43       4.87
C      19.22      18.60      27.55
C      21.12      19.66      29.31
C      19.12      19.96      27.93
C      21.21      18.32      28.92
C      20.09      20.46      28.81
C      20.26      17.80      28.05
C      17.24      11.36      27.81
C      15.02       8.84      29.17
C      16.14      12.03      27.26
C      16.10       8.17      29.70
C      15.43      10.00      28.47
C      16.82      10.19      28.50
C      30.58      17.18      27.56
C      29.42      20.24      29.12
C      31.68      17.87      27.03
C      28.33      19.57      29.63
C      30.24      19.38      28.36
C      29.75      18.05      28.32
C      22.23      11.02      12.87
C      12.49      13.67      17.24
C      16.33       4.35       2.74
C      18.06      20.91      27.43
S      11.14       7.32      13.01
S      14.73       8.89      11.57
S      22.18      13.48      18.57
S      21.33      13.59      22.66
S       7.42       4.98      18.18
S       7.34       4.24      22.30
S      28.20      15.58      12.81
S      25.22      18.00      11.15
S      18.24      11.07       6.05
S      18.38      11.83       1.94
S       2.74       3.81       3.85
S       6.16       1.55       4.67
S      14.63      11.23      27.58
S      17.63       8.94      29.37
S      31.70      19.56      27.46
S      28.28      17.88      29.20
O      26.99      10.79      16.26
O       7.34       7.58      16.91
O       9.15      11.48      18.87
O      10.18      10.74      14.68
O       7.36       8.85      18.81
O       9.14       8.70      14.54
O       9.88      12.70      17.10
O      27.88      13.29      14.43
O      24.17      10.39      14.76
O      25.60      13.16      14.47
O      25.60       8.70      14.22
O      25.61      11.68      19.10
O      24.38      12.34      17.28
O      18.40       5.37       8.17
O      16.64       7.51       9.89
O      15.72       3.98       6.99
O      18.39       7.19       5.48
O      15.55       5.50       9.76
O      18.25       8.52       7.34
O      17.26       4.26       5.35
O      20.38       4.69       5.68
O      20.86       5.67      10.22
O      21.26       3.86       7.62
O      19.80       7.67       9.97
O      17.09       2.77       9.61
O      19.37       2.83       9.88
O      16.02      16.18      24.36
O      17.92      15.39      21.88
O      18.61      16.79      26.16
O      15.98      19.32      23.57
O      18.89      14.71      23.84
O      16.20      18.04      21.69
O      17.15      18.51      26.37
O      14.04      18.25      25.88
O      13.53      14.46      23.23
O      13.16      16.13      25.90
O      14.78      15.25      21.49
O      17.21      13.91      26.35
O      14.98      13.56      25.95
O      18.43      17.64       0.01
O      17.22       6.44      30.81
O      13.34       3.76      30.65
O      26.29      19.35      30.76
O      14.93       6.46      30.79
O      27.38      21.36      30.79
O      23.10      19.47      30.58
O      18.37      14.46       0.70
O      11.32       0.83       2.74
O      18.42      15.70       2.62
O      12.48       1.59       0.94
O       7.11       1.56       0.85
O       8.13       0.68       2.70
O      12.70      10.90      13.46
O      24.30      12.19      21.62
O       7.23       7.47      21.22
O      24.29      15.22      12.96
O      18.40       8.57       3.01
O       4.08       2.40       7.26
O      18.52      11.79      27.68
O      30.37      15.86      27.36
