76

Mg       3.35      10.50       3.10
Mg      -0.18      -3.32       6.59
Mg      -3.07       5.83       9.01
Mg      -3.07      -1.09       5.53
H      -7.06       6.71       9.20
H       4.79      11.73       0.64
H      -1.30      -0.25       1.94
H      -3.29      -3.27       6.50
H       7.27       6.43       3.78
H      -0.73      -3.24       8.92
H       6.15       2.46       2.51
H       5.40       9.26       3.07
H       5.21       6.87       2.92
H       7.06       0.36       1.79
H       6.32       3.49       0.48
H      -5.40       7.98       5.62
H      -4.84      -3.48       8.34
H       9.62      -1.60       3.20
H       0.92       6.50       9.61
H      -4.79       7.50       9.05
H      -0.82      10.26       3.59
H      -3.89       3.00       6.01
H      -2.25       1.74       8.53
H       0.82       8.99       6.10
C      -1.43      11.46       0.46
C      -0.71      10.96       1.55
C       0.77      10.75       1.41
C      -0.26      -0.53       1.80
C       0.43      -1.12       2.87
C      -0.32      -1.47       4.12
C       7.26       5.35       3.92
C      -4.54       4.81       5.03
C      -3.96       5.74       6.05
C       6.69       3.14       3.18
C       7.43       2.59       4.23
C       7.58       1.10       4.32
C       5.21       6.34       1.96
C       4.54       6.91       0.87
C       3.96       8.28       1.01
C       5.79       4.43       0.63
C      -1.10       0.06       9.25
C      -1.25      -0.76       8.00
C       6.59      -3.76       8.20
C       5.90      -3.25       7.09
C       6.65      -2.45       6.06
C       1.43       7.19       8.94
C       0.71       7.77       7.88
C      -0.77       7.53       7.79
C      -2.79      11.78       0.57
C      -1.37      10.68       2.75
C       6.61       4.52       2.99
C      -4.44       3.43       5.17
C       5.86       5.10       1.85
C      -1.70       1.31       9.37
C       2.79       7.47       9.12
C       1.37       8.57       6.94
O       1.45      10.59       2.47
O       1.25      10.79       0.22
O       0.22      -2.25       4.94
O      -1.50      -0.97       4.24
O      -3.63       5.26       7.18
O      -3.88       6.98       5.72
O      -4.00       0.63       5.08
O       6.79       0.40       3.58
O      -2.51       4.02       9.65
O       3.88       8.75       2.20
O      -2.14      -0.43       7.17
O      -0.46      -1.77       7.88
O       6.11      -2.25       4.94
O       7.83      -2.05       6.39
O      -1.45       8.28       7.04
O      -1.25       6.60       8.54
O       5.58      10.13       3.50
O      -0.83      -4.17       8.62
O       7.16      -0.44       1.21
O      -5.58       8.84       6.06
