300

Gd       8.48      10.30       0.34
Gd      10.66      15.64       7.74
Gd       2.99       2.42      17.28
Gd       0.81      -2.92       9.89
H       6.41       4.93       2.03
H       9.91       7.18       3.04
H       9.66       1.09       7.41
H      11.57      -0.19       3.77
H       5.58      13.40       2.80
H       3.78       9.49       2.62
H       9.84       4.02      16.63
H      13.12       6.33       0.48
H      13.28       7.45       1.87
H      11.67       7.03       1.24
H      11.93       3.44      16.16
H      -2.62       2.07      16.97
H      10.54       9.04       2.94
H      12.45      12.39       3.82
H      10.72      12.59       3.44
H      11.25      12.39       5.14
H      13.16      10.00       4.72
H      11.81      10.01       5.90
H      11.89       8.75       4.63
H      -2.61      12.35      12.31
H       9.23      12.10       9.85
H       9.48       6.03      14.26
H       7.57       9.09      16.62
H      -1.78      14.29       4.02
H       0.02      13.23       7.80
H       9.30      -1.80       8.58
H       6.01      14.27      11.46
H       5.85      13.29       9.97
H       7.47      13.76      10.56
H       7.21      -1.54       9.28
H       6.42      -2.73      10.32
H       8.59      12.78       8.12
H       6.68      13.00       4.66
H       8.41      13.42       4.59
H       7.88      11.74       4.24
H       5.98      11.39       6.65
H       7.32      10.28       6.27
H       7.25      11.08       7.87
H       5.06       7.80      15.59
H       1.56       5.55      14.58
H       1.81      11.64      10.21
H      -0.10      12.91      13.86
H       5.89      -0.68      14.83
H       7.69       3.24      15.01
H       1.63       8.71       0.99
H      -1.65       6.39      17.15
H      -1.81       5.28      15.75
H      -0.20       5.70      16.38
H      -0.46       9.29       1.46
H      14.09      10.65       0.66
H       0.93       3.69      14.69
H      -0.98       0.33      13.80
H       0.75       0.14      14.18
H       0.21       0.33      12.48
H      -1.69       2.72      12.90
H      -0.34       2.72      11.73
H      -0.42       3.98      12.99
H      14.08       0.38       5.31
H       2.24       0.63       7.77
H       1.99       6.69       3.37
H       3.90       3.63       1.01
H      13.25      -1.56      13.60
H      11.45      -0.50       9.83
H       2.17      14.53       9.05
H       5.46      -1.54       6.16
H       5.62      -0.57       7.66
H       4.00      -1.03       7.06
H       4.26      14.26       8.35
H       5.05      15.45       7.31
H       2.87      -0.05       9.50
H       4.79      -0.27      12.97
H       3.06      -0.69      13.03
H       3.59       0.98      13.38
H       5.49       1.33      10.98
H       4.15       2.45      11.35
H       4.22       1.64       9.76
C       7.52       7.39       1.75
C       8.10       6.19       2.46
C       7.39       4.99       2.49
C       7.97       3.87       3.09
C       9.24       3.89       3.68
C       9.90       5.13       3.65
C       9.36       6.25       3.05
C       9.78       2.68       4.37
C       9.44       2.38       5.71
C       9.91       1.24       6.36
C      10.70       0.33       5.68
C      10.99       0.54       4.33
C      10.54       1.70       3.71
C      11.25      -0.88       6.37
C       5.96      10.93       1.78
C       4.79      11.41       2.57
C       4.75      12.74       3.00
C       3.63      13.20       3.68
C       2.50      12.40       3.92
C       2.63      11.05       3.55
C       3.75      10.54       2.89
C       9.68       3.19      17.35
C      12.71       7.22       0.96
C      12.09       2.96      17.14
C      10.56      10.14       2.98
C      11.44      12.09       4.11
C      12.08       9.80       4.85
C      11.61      13.39      10.06
C      11.04      12.34      10.97
C      11.74      11.93      12.10
C      11.17      11.01      12.98
C       9.90      10.45      12.78
C       9.23      10.87      11.61
C       9.78      11.79      10.73
C       9.36       9.42      13.71
C       9.69       8.06      13.57
C       9.23       7.08      14.44
C       8.44       7.44      15.53
C       8.15       8.79      15.75
C       8.59       9.74      14.84
C       7.89       6.40      16.46
C      -2.16      14.47       6.69
C      -0.99      13.87       5.98
C      -0.95      13.88       4.59
C       0.17      13.39       3.93
C       1.30      12.91       4.62
C       1.17      12.84       6.02
C       0.05      13.30       6.71
C       9.45      -2.74       9.14
C       6.43      14.08      10.47
C       7.05      -2.61       9.43
C       8.58      13.09       7.06
C       7.70      12.63       4.85
C       7.05      11.21       6.79
C       3.95       5.33      15.87
C       3.37       6.53      15.17
C       4.08       7.73      15.14
C       3.50       8.85      14.54
C       2.23       8.84      13.94
C       1.56       7.60      13.97
C       2.11       6.48      14.57
C       1.69      10.05      13.25
C       2.03      10.35      11.92
C       1.56      11.48      11.26
C       0.77      12.40      11.95
C       0.48      12.18      13.30
C       0.93      11.03      13.92
C       0.22      13.61      11.25
C       5.51       1.80      15.84
C       6.68       1.32      15.05
C       6.72      -0.01      14.62
C       7.84      -0.48      13.94
C       8.97       0.33      13.71
C       8.84       1.67      14.08
C       7.72       2.18      14.73
C       1.78       9.54       0.27
C      -1.24       5.50      16.66
C      -0.62       9.77       0.49
C       0.91       2.59      14.65
C       0.03       0.63      13.52
C      -0.61       2.92      12.77
C      -0.15      -0.66       7.57
C       0.43       0.38       6.65
C      -0.27       0.79       5.52
C       0.30       1.71       4.65
C       1.57       2.28       4.85
C       2.24       1.85       6.02
C       1.69       0.93       6.89
C       2.11       3.31       3.92
C       1.78       4.67       4.05
C       2.24       5.65       3.18
C       3.03       5.29       2.10
C       3.32       3.94       1.88
C       2.88       2.98       2.78
C       3.58       6.33       1.17
C      13.63      -1.75      10.93
C      12.46      -1.15      11.64
C      12.42      -1.16      13.03
C      11.30      -0.66      13.69
C      10.17      -0.18      13.00
C      10.30      -0.11      11.61
C      11.41      -0.57      10.92
C       2.02      15.47       8.48
C       5.04      -1.36       7.16
C       4.42      15.34       8.20
C       2.89      -0.36      10.56
C       3.77       0.09      12.77
C       4.42       1.52      10.83
N       7.15       2.64       3.08
N      11.23       5.28       4.27
N       8.59       3.29       6.50
N      10.89       1.87       2.28
N       3.69      14.57       4.22
N       1.54      10.10       3.81
N      12.73       8.35       0.03
N      11.30      10.65       3.96
N      11.98      10.64      14.15
N       7.90      10.34      11.27
N      10.55       7.60      12.46
N       8.24      11.15      15.13
N       0.12      13.31       2.47
N       2.26      12.28       6.84
N       6.40      15.32       9.69
N       7.83      12.32       6.27
N       4.32      10.09      14.55
N       0.24       7.44      13.36
N       2.88       9.43      11.13
N       0.58      10.85      15.34
N       7.78      -1.85      13.41
N       9.93       2.63      13.81
N      -1.26       4.38      17.59
N       0.16       2.08      13.67
N      -0.52       2.09       3.47
N       3.57       2.39       6.36
N       0.92       5.13       5.17
N       3.23       1.58       2.50
N      11.35      -0.58      15.16
N       9.21       0.44      10.78
N       5.07      -2.59       7.94
N       3.64       0.41      11.35
O       8.18       8.48       1.84
O       6.44       7.19       1.12
O      11.18      -0.93       7.66
O      11.77      -1.81       5.69
O       5.93       2.79       3.17
O       7.74       1.55       2.96
O      11.82       6.37       4.10
O      11.70       4.33       4.91
O       7.93       2.79       7.41
O       8.60       4.50       6.20
O      10.74       3.00       1.79
O      11.32       0.89       1.67
O       5.79       9.91       1.04
O       7.06      11.54       1.87
O       4.81      15.03       4.46
O       2.62      15.16       4.43
O       0.37      10.48       3.60
O       1.86       8.97       4.20
O      10.48       8.78       0.18
O       9.92      10.83       2.16
O      10.96      13.65       9.00
O      -2.64      13.92      10.44
O       7.95       5.16      16.10
O       7.37       6.75      17.55
O      -2.12      10.59      13.98
O      11.40      10.40      15.22
O       7.32      10.83      10.29
O       7.44       9.43      11.97
O      11.21       6.57      12.64
O      10.54       8.26      11.40
O       8.40      11.98      14.21
O       7.82      11.42      16.25
O      -1.99      14.85       7.89
O      12.07      14.58       6.08
O      -1.01      13.22       1.95
O       1.18      13.29       1.84
O       3.43      12.61       6.55
O       1.95      11.56       7.79
O       8.66      15.32       9.23
O       9.22      14.09       6.66
O       3.29       4.25      15.79
O       5.03       5.53      16.50
O       0.28      13.66       9.97
O      -0.30      14.54      11.93
O       5.54       9.94      14.46
O       3.73      11.17      14.66
O      -0.35       6.36      13.52
O      -0.23       8.39      12.72
O       3.54       9.93      10.21
O       2.87       8.23      11.43
O       0.73       9.72      15.84
O       0.15      11.84      15.95
O       5.68       2.82      16.58
O       4.41       1.18      15.75
O       6.66      -2.31      13.16
O       8.85      -2.44      13.20
O      11.10       2.25      14.03
O       9.61       3.75      13.42
O       0.99       3.94      17.44
O       1.55       1.89      15.47
O       0.51      -0.93       8.63
O      14.11      -1.20       7.18
O       3.52       7.56       1.53
O       4.10       5.97       0.07
O      13.59       2.13       3.64
O       0.07       2.32       2.41
O       4.15       1.89       7.34
O       4.03       3.29       5.66
O       0.26       6.16       4.98
O       0.93       4.47       6.22
O       3.07       0.75       3.41
O       3.65       1.31       1.37
O      13.46      -2.13       9.73
O      -0.60      -1.86      11.54
O      12.48      -0.50      15.68
O      10.29      -0.57      15.79
O       8.04       0.12      11.08
O       9.52       1.16       9.84
O       2.81      -2.59       8.39
O       2.25      -1.36      10.96
