76

Zn       5.60       7.55       8.14
Zn       8.41       7.50       8.14
H       8.32       9.39      15.39
H       4.70       7.67      15.41
H       5.07      14.38       8.27
H       8.89       0.70       8.27
H       5.04      11.91       8.62
H       8.89       3.17       8.61
H       8.85      11.59       6.66
H       5.09       3.44       6.62
H      13.06       8.51      10.00
H       0.99       5.58       7.16
H      10.55       8.42       9.96
H       5.71       5.69       0.90
H       3.49       5.67       7.25
H       8.94       0.01       5.61
H       5.04      15.03       5.58
H      10.51       6.58       6.26
H       3.46       9.44       8.94
H      13.02       6.56       6.14
H       0.95       9.52       8.94
H       6.03       9.67       0.99
H       7.99       5.40      15.29
H       9.32       7.40       0.88
C       6.96      10.12       7.98
C       5.94       1.47       6.75
C       6.96      14.39       7.24
C       7.00       0.67       7.23
C      12.54       8.08       9.14
C       1.49       6.46       7.56
C      11.15       8.04       9.13
C       2.88       6.50       7.60
C      11.13       6.98       7.07
C       2.86       8.61       8.57
C      12.52       6.97       7.01
C       6.95       4.93       7.97
C       1.47       8.64       8.57
C      13.25       7.53       8.07
C       0.76       7.55       8.06
C       7.05       7.54      10.73
C       7.06       7.51       5.54
C       6.46       8.75       0.58
C       7.57       6.32      15.71
C       7.75       8.53      15.76
C       6.28       6.54       0.52
C       7.04       7.53      12.18
C       5.88      12.39       8.11
C       7.05       7.52       4.10
C       5.73       7.58      15.77
C       8.29       7.49       0.52
C       7.00       7.50      14.81
C       7.03       7.57       1.47
C       7.01       7.52      13.40
C       7.04       7.54       2.88
C       5.89      13.76       7.89
C       8.07       1.31       7.88
C       9.12      14.16       5.95
C       8.07       2.68       8.10
C       4.86       0.88       5.92
C       6.96      11.60       7.70
C       6.97       3.46       7.68
C       8.02      12.20       7.02
C       5.93       2.85       7.00
C       8.03      13.58       6.77
N      10.46       7.50       8.11
N       3.55       7.55       8.10
O       5.87       9.60       8.38
O       3.84       1.48       5.58
O       8.02       5.47       8.38
O       8.06       9.51       7.79
O       5.84       5.53       7.77
O       5.95       7.29      10.15
O       8.15       7.17       6.11
O       8.17       7.79      10.17
O       5.97       7.84       6.12
O      10.13      13.55       5.62
