228

Zn       7.43       8.91      15.57
Zn      26.92      10.67      18.21
Zn       8.88      11.81      15.63
Zn      25.43      11.72      15.55
Zn      18.26       7.28       8.85
Zn      16.79       4.44       8.66
Zn      18.58       5.48       6.19
Zn      20.02       4.57       8.83
Zn      16.05      16.19      22.37
Zn      17.56      15.28      25.01
Zn      15.75      17.95      25.04
Zn      14.31      15.14      24.88
Zn      17.50       4.90      31.93
Zn      14.31       4.77      31.75
Zn      24.59      19.73      31.77
Zn      18.33      17.65       1.96
H      23.03       5.86      11.39
H      20.66       9.44      11.47
H      24.68       6.94      12.94
H      11.24      13.31      22.68
H      13.67      14.66      19.38
H       9.61      12.33      21.05
H      12.25       1.46       4.97
H      14.41       2.97       1.57
H      13.96       2.49       6.48
H      22.08      17.54      29.20
H      11.33       3.57      29.14
H      20.38      16.55      27.65
H      23.99      11.72      12.97
H      10.35      14.16      16.66
H      17.93       3.62       3.98
H      16.42      19.29      27.61
C       7.33       7.74      18.27
C       9.64      12.36      18.44
C      10.01       9.48      14.26
C      26.96      13.85      14.22
C      24.70       9.36      13.92
C      24.34      12.09      18.24
C      15.68       6.72      10.16
C      16.13       3.82       5.89
C      18.35       8.39       6.11
C      21.17       4.12       6.15
C      20.77       6.96      10.39
C      18.41       2.40      10.04
C      18.64      14.80      22.32
C      18.21      17.62      26.66
C      15.99      19.15      22.40
C      13.15      17.46      26.31
C      13.53      14.65      22.08
C      15.98      13.21      26.38
C      15.89       6.90      30.48
C      22.11      20.06      30.21
C      27.21      20.26      30.50
C      18.42      14.69       2.00
C      12.22       1.52       2.25
C       7.12       1.31       1.98
C      23.62       8.80      13.05
C      21.76       7.59      11.32
C      22.46       9.50      12.63
C      22.89       6.88      11.74
C      21.55       8.90      11.78
C      23.80       7.48      12.60
C      10.70      12.96      19.31
C      12.54      14.05      21.13
C      11.86      13.62      18.85
C      11.40      13.39      21.60
C      12.77      14.16      19.75
C      10.50      12.85      20.70
C      12.28       9.59      13.04
C      13.42       6.62      11.39
C      11.12       8.95      13.46
C      14.58       7.26      10.97
C      12.57       7.46      12.15
C      13.12       8.75      12.28
C      23.08      12.63      20.41
C      19.91      14.26      20.14
C      23.23      12.61      19.03
C      19.75      14.27      21.52
C      21.12      13.66      19.72
C      21.87      13.22      20.82
C       7.28       6.39      20.46
C       7.43       2.82      20.22
C       7.34       6.52      19.08
C       7.39       2.69      21.60
C       7.40       4.16      19.80
C       7.32       5.04      20.89
C      25.89      15.75      12.86
C      28.07      18.19      11.42
C      26.97      15.07      13.41
C      27.00      18.87      10.85
C      27.68      17.05      12.15
C      26.28      16.89      12.12
C      15.15       3.28       4.89
C      13.23       2.14       3.17
C      15.27       3.42       3.48
C      13.10       2.01       4.56
C      14.31       2.85       2.64
C      14.05       2.58       5.40
C      18.46       9.75       3.92
C      18.35      13.32       4.18
C      18.37       9.61       5.30
C      18.42      13.46       2.80
C      18.36      11.97       4.60
C      18.45      11.10       3.50
C       3.76       2.89       5.76
C       4.85       2.47       2.38
C       2.61       3.55       5.34
C       6.01       1.84       2.79
C       4.02       2.86       3.45
C       4.58       2.49       4.69
C      19.19      18.33      27.55
C      21.11      19.45      29.28
C      19.07      19.68      27.97
C      21.24      18.13      28.85
C      20.03      20.22      28.83
C      20.29      17.58      27.99
C      17.04      11.27      27.72
C      14.83       8.83      29.12
C      15.97      11.98      27.18
C      15.90       8.12      29.67
C      15.24       9.97      28.40
C      16.64      10.12      28.43
C      30.56      17.37      27.59
C      29.47      20.34      29.27
C      31.71      18.00      27.14
C      28.31      19.71      29.70
C      30.30      19.49      28.50
C      29.74      18.21      28.37
S      11.05       7.29      12.93
S      14.64       8.92      11.49
S      21.87      13.32      18.21
S      21.10      13.53      22.33
S       7.44       4.97      18.28
S       7.30       4.23      22.41
S      28.49      15.82      13.03
S      25.48      18.11      11.22
S      18.29      11.15       6.11
S      18.52      11.92       1.99
S       2.52       3.68       3.61
S       6.10       1.69       4.53
S      14.44      11.22      27.53
S      17.43       8.87      29.30
S      31.81      19.65      27.68
S      28.22      18.05      29.17
S      22.01      11.14      13.21
S      12.33      13.73      17.11
S      16.53       4.41       2.66
S      17.81      20.82      27.40
O       7.35      10.75      16.25
O       7.48       7.57      17.01
O       8.96      11.42      18.94
O      10.14      10.67      14.71
O       7.19       8.85      18.89
O       9.02       8.69      14.44
O       9.45      12.85      17.26
O       8.47      13.35      14.49
O      24.88      10.63      13.95
O      25.83      13.39      14.59
O      25.41       8.53      14.56
O      25.37      11.68      18.87
O      24.17      12.11      16.97
O      18.40       5.45       8.14
O      16.61       7.55       9.87
O      15.69       4.03       7.06
O      18.39       7.28       5.49
O      15.62       5.49       9.83
O      18.30       8.58       7.38
O      17.35       4.02       5.53
O      20.25       4.72       5.49
O      21.02       5.76      10.02
O      21.24       3.98       7.42
O      19.78       7.67      10.03
O      17.26       2.78       9.59
O      19.53       2.97       9.86
O      15.92      16.13      24.33
O      17.69      15.36      21.69
O      18.64      16.63      26.00
O      15.96      19.30      23.67
O      18.75      14.64      23.59
O      16.02      18.05      21.75
O      16.98      18.02      26.63
O      14.07      18.30      26.01
O      13.28      14.51      23.33
O      13.09      16.24      25.96
O      14.53      15.24      21.57
O      17.10      13.77      26.18
O      14.83      13.59      25.96
O      15.91       3.88      32.48
O      17.04       6.48      30.85
O      21.91      21.27      30.56
O      26.25      19.45      30.75
O      14.75       6.38      30.73
O      18.70       3.79      30.86
O      23.09      19.32      30.57
O      18.47      14.52       0.73
O      11.25       0.90       2.80
O      18.37      15.80       2.63
O      12.42       1.67       1.00
O       7.01       1.43       0.72
O       8.09       0.79       2.64
O      23.14      12.05      12.55
O      20.78      11.52      12.57
O      22.13      11.15      14.65
O      11.20      14.68      16.52
O      13.56      14.47      17.02
O      12.22      12.41      16.55
O      17.86       3.58       2.98
O      16.33       4.30       1.24
O      16.57       5.69       3.31
O      16.49      20.20      28.04
O       9.41       4.39      28.05
O      17.76      20.74      25.96
F      12.58      10.86      13.30
F      13.11       5.34      11.13
F      23.97      12.14      21.28
F      19.02      14.76      19.27
F       7.19       7.41      21.32
F      16.11      19.49      19.35
F      24.61      15.39      12.98
F      29.36      18.56      11.30
F      18.55       8.73       3.06
F      18.26      14.34       5.05
F       4.08       2.65       7.04
F       4.53       2.72       1.10
F      18.33      11.63      27.60
F      13.54       8.48      29.25
F      30.23      16.09      27.32
F      21.20       3.92      29.53
