36

Zn       4.35       5.71       5.97
Zn       7.11       5.69       5.89
C       5.65       5.59       3.34
C       6.62      10.65       4.86
C       5.02       0.81       4.79
C       6.44      10.59       7.07
C       5.69       1.62       5.99
C       5.77       9.78       5.87
C       5.60       5.52       1.90
C       5.86       5.88       9.96
C       5.56       5.47       0.67
C       5.90       5.93      11.18
C       5.82       5.81       8.52
C       5.70       8.29       5.85
C       5.76       3.11       6.01
C      10.37       5.71       5.90
C       1.09       5.69       5.95
C       4.62      10.84       5.81
C       6.84       0.56       6.05
C       4.84       0.75       6.99
I       4.29       1.67       3.03
I       7.17       9.73       8.83
N       9.21       5.72       5.86
N       2.25       5.68       6.00
O       4.52       5.65       3.93
O       6.94       5.76       7.92
O       4.66       5.81       7.99
O       6.80       5.59       3.87
O       4.55       7.75       5.89
O       6.91       3.65       5.97
O       4.63       3.69       6.04
O       6.83       7.71       5.82
F       3.30      10.57       5.68
F       8.16       0.84       6.18
F       4.20       1.26       8.07
F       7.26      10.14       3.78
