110

Zn       7.71      -5.90      10.50
Zn      -7.89       6.54      10.54
Zn      -2.21      13.38       1.75
Zn      -1.23       1.01       1.62
H       1.84       6.46       9.81
H       1.98       2.26       9.67
H      10.55      -3.05       6.72
H       1.22       6.02       2.07
H       0.93       8.45       2.12
H      -5.81       1.63       9.99
H      -5.49      -0.80       9.93
H       7.99       7.30       7.39
H      -3.81      10.71       2.41
H      -1.01       2.38       4.59
H      -5.97       3.96      10.05
H       9.19      -3.09       9.90
H      -0.63      10.39       2.28
H       0.43       3.74       2.17
H       4.68      -4.69       9.82
H      -2.59      -5.24       9.92
H      11.07      -1.00       1.92
H       2.52      -0.10       4.76
H      -2.94      -1.18       5.85
H      -2.30      -1.11       4.30
H       0.72      -0.07       7.17
H       1.13       0.13       8.80
H       6.57       6.98       5.14
H       6.22       1.40       0.34
H       7.17       7.00       3.54
H       3.28       5.77       5.76
H       3.65       6.02       7.41
H      10.49       1.55       3.00
H       9.23       2.57       2.55
H       4.16      -0.06       2.77
H       7.85       2.76       0.85
H       5.11       1.26       2.36
C       2.80       5.95       9.88
C      -5.19      -2.44      12.05
C      -0.12      10.00       0.11
C       3.99      -4.37      11.95
C      -1.61      -5.26      11.95
C       0.32      -3.88      11.00
C       1.77      -3.74      10.90
C       7.05       7.81       7.61
C      -0.25      -4.81      11.81
C       2.61      -4.00      11.94
C       7.72      11.61       4.71
C       1.43       1.79       7.64
C       7.16      10.88       5.77
C       1.97       2.61       8.64
C       6.88       9.52       5.67
C       2.51       3.87       8.36
C       7.10       8.83       4.45
C       2.52       4.36       7.03
C       7.69       9.57       3.40
C       2.00       3.52       6.03
C      10.15      11.53       2.18
C      -0.23       1.64       4.44
C       8.02      10.93       3.51
C       8.79      11.67       2.50
C       1.45       2.26       6.30
C       0.94       6.54       1.15
C       0.77       7.92       1.18
C       0.34       8.62       0.04
C      -5.04      -0.99      12.04
C       0.94       1.44       5.19
C      -5.50       1.11      10.90
C      -5.32      -0.26      10.87
C      -6.15       4.08      11.11
C      -5.47      -3.29      10.96
C      10.51       2.12       1.04
C       3.63       0.88       1.04
C      -0.61      10.69       1.23
C       0.35       3.51       1.11
C       4.85      -4.74      10.89
C      -2.59      -5.52      10.97
C       8.45      12.91       1.93
C       1.57       0.38       4.52
C       4.53       4.61       9.76
C       5.29       9.10       7.67
C       3.18       4.71       9.36
C       6.41       8.82       6.87
N       3.83       6.54      10.52
N      -5.82      -4.51      11.41
N      -6.76       5.20      11.56
N      11.70       1.61       0.69
N       2.44       0.31       0.76
N      -1.14      11.87       0.87
N      -0.03       2.29       0.70
N       6.37       7.53       8.74
N       6.00      -5.23      11.36
N      -3.57      -6.28      11.49
N       9.54      13.47       1.36
N       0.85      -0.01       3.45
N       4.91       5.71      10.46
N       5.27       8.34       8.78
N      11.56      -1.45       4.87
N       0.81       0.58       7.95
N       6.71       7.51       4.29
N       3.01       5.63       6.73
N      10.19       2.30       2.38
N       4.19       0.84       2.30
N      -4.05      12.62       1.52
N      -0.28       0.78       3.41
Cl       8.04       8.73       1.92
Cl       2.39      -3.45       9.30
Cl      -0.67      -2.90       9.97
Cl       2.12       4.07       4.38
Cl       5.61       3.34       9.41
Cl       4.05      10.25       7.40
