42

Al       3.51       3.19       5.78
Al       0.16       3.19       5.78
H      -1.51       4.07       7.31
H       1.84       2.52       4.16
H       3.12      -0.71       5.07
H      -2.80       7.11       6.57
H       3.07       4.54       1.64
H      -2.74       1.82       9.90
H      -0.56       6.30       5.24
H      -1.11       7.82       4.62
H       0.94       0.04       6.29
H       1.53      -1.54       6.70
C       1.86       2.51       8.10
C       1.84       5.61       6.00
C      -1.53       3.86       3.45
C      -1.51       0.77       5.60
C       1.86       7.09       5.93
C      -1.55      -0.70       5.72
C       0.74       7.86       5.51
C      -0.44      -1.47       6.18
C       3.95      -1.34       5.40
C      -3.64       7.73       6.25
C       4.09       4.71       1.30
C      -3.76       1.65      10.24
C      -1.52       4.41       2.09
C       1.84       1.95       9.45
C      -4.16       1.12      11.48
C       4.49       5.23       0.06
S       0.00       4.77       1.32
S       0.32       1.59      10.22
N      -0.51       7.32       5.26
N       0.75      -0.91       6.60
O      -3.70       2.67       7.55
O       0.69       5.02       5.95
O      -0.40       3.60       3.98
O       4.08       1.39       5.47
O       4.03       3.70       4.00
O      -0.37       1.35       5.62
O       0.72       2.78       7.57
O      -3.75       5.00       6.10
O      -1.51       3.66       6.44
O       1.83       2.72       5.11
