108

In      13.76       2.83       3.12
In      10.71       8.48       9.36
Cu      16.82       8.48       9.36
Cu       7.65       2.83       3.12
H      10.44       0.95       6.09
H      17.08       4.70       6.09
H       4.85       0.95       0.15
H      10.44       4.70       0.15
H      14.03      10.35       6.39
H       7.39       6.61       6.39
H      19.62      10.35      12.33
H      14.02       6.61      12.33
H      20.49      10.49       6.33
H      13.15       6.47       6.33
H      13.15      10.49      12.40
H      20.49       6.47      12.40
H       3.98       0.82       6.16
H      11.32       4.84       6.15
H      11.32       0.82       0.09
H       3.98       4.84       0.09
H      15.86      10.73       7.96
H      17.78       6.23       7.96
H      17.78      10.73      10.76
H      15.86       6.23      10.77
H       8.61       0.58       4.52
H       6.69       5.08       4.52
H       6.69       0.58       1.72
H       8.61       5.08       1.72
H      19.63       8.99       8.11
H      14.02       7.97       8.11
H      14.02       8.99      10.61
H      19.63       7.97      10.62
H       4.84       2.32       4.37
H      10.45       3.34       4.37
H      10.45       2.32       1.87
H       4.84       3.34       1.87
C      11.14       0.24       6.52
C      16.38       5.42       6.52
C      10.27       0.24      12.21
C      17.26       5.42      12.21
C      13.33      11.07       5.96
C       8.08       5.89       5.96
C      14.20      11.07       0.28
C       7.21       5.89       0.28
C      19.45      10.56       6.64
C      14.20       6.40       6.64
C      14.20      10.56      12.09
C      19.45       6.40      12.09
C       5.02       0.75       5.85
C      10.27       4.91       5.85
C      10.27       0.75       0.39
C       5.02       4.91       0.39
C      16.87      10.70       7.55
C      16.77       6.26       7.55
C      16.77      10.70      11.18
C      16.87       6.26      11.18
C       7.60       0.61       4.94
C       7.70       5.05       4.94
C       7.70       0.61       1.31
C       7.60       5.05       1.31
C      18.98       9.73       7.65
C      14.67       7.23       7.65
C      14.67       9.73      11.08
C      18.97       7.23      11.08
C       5.49       1.58       4.84
C       9.80       4.08       4.84
C       9.80       1.58       1.41
C       5.49       4.08       1.40
C      12.91       1.09       4.96
C      14.62       4.56       4.96
C       2.39       1.09       1.28
C      12.90       4.56       1.28
C      11.56      10.22       7.53
C       9.85       6.75       7.53
C      22.08      10.22      11.20
C      11.56       6.75      11.20
C      12.46       0.17       6.05
C      15.07       5.48       6.05
C       2.83       0.17       0.20
C      12.46       5.48       0.19
C      12.01      11.14       6.44
C       9.40       5.83       6.44
C      21.63      11.14      12.29
C      12.01       5.83      12.29
N      17.71       9.79       8.10
N      15.94       7.17       8.10
N      15.94       9.79      10.62
N      17.70       7.17      10.62
N       6.76       1.52       4.38
N       8.53       4.14       4.38
N       8.53       1.52       1.86
N       6.76       4.14       1.86
O      14.16       1.23       4.74
O      13.37       4.42       4.74
O      13.37       1.23       1.50
O      14.16       4.42       1.50
O      10.31      10.07       7.74
O      11.10       6.89       7.74
O      11.10      10.07      10.98
O      10.31       6.89      10.98
O      12.04       1.73       4.28
O      15.49       3.92       4.28
O       3.26       1.73       1.96
O      12.03       3.92       1.96
O      12.43       9.58       8.20
O       8.98       7.38       8.20
O      21.21       9.58      10.52
O      12.43       7.38      10.52
