92

Zn       1.63       3.50      12.76
Zn       8.62       2.82      13.79
H       0.66       4.75       8.75
H       5.87       2.80       7.47
H       4.17       4.49      26.06
H       5.92       1.39       0.43
H       5.00       7.99       1.68
H       5.12      -2.11      24.81
H       3.10       5.24      10.88
H       6.67       1.19      15.54
H       9.67       1.21      17.53
H       3.95       2.39      13.73
H       6.37       3.97      12.51
H       9.39       5.04       6.41
H       0.87       0.75      19.86
H       5.82       7.63       3.98
H       4.33      -1.74      22.50
H       4.35       3.19      19.13
C       9.33       5.62      13.58
C       3.57       2.74      23.21
C       8.54       3.68       9.44
C       1.77       2.42      17.00
C       4.52       2.37      25.89
C       5.57       3.51       0.61
C       4.87      -0.05      25.42
C       5.23       5.92       1.06
C       4.46       1.25      25.00
C       5.63       4.62       1.49
C       4.12       3.61      25.41
C       0.50       0.83      12.20
C       5.97       2.26       1.08
C       3.65       3.81      24.10
C       6.44       2.06       2.39
C       9.14       3.63      10.82
C       1.21       2.63      15.63
C       5.30       6.99       1.97
C       4.81      -1.11      24.51
C       9.17       6.97      12.94
C       0.22      -0.11      11.05
C      10.17       7.72      12.39
C       6.11       4.42       2.83
C       9.23      -1.34      11.19
C       5.88       3.17      13.06
C       4.42       3.10      13.04
C       6.66       5.41       5.09
C       3.51       0.48      21.37
C       7.05       2.97       4.66
C       3.06       2.90      21.82
C       6.82       3.25       7.76
C       3.42       2.74      18.77
C       7.31       3.09       9.06
C       3.99       1.45      23.66
C       2.99       2.97      17.46
C       9.27       4.36       8.45
C       1.03       1.63      17.89
C       8.80       4.50       7.16
C       1.46       1.38      19.19
C       7.56       3.96       6.82
C       2.65       1.95      19.62
C       3.98       4.73      11.31
C       6.11       1.34      14.59
C       6.17       5.54       3.71
C       3.96       0.34      22.77
C       5.76       6.79       3.27
C       4.37      -0.91      23.21
C       6.53       3.13       3.28
I       0.75       0.67       9.18
I       7.18       7.56      12.58
I       4.22       4.26      16.33
I       6.17       1.76      10.25
I       3.16       5.81      23.67
I       6.95       0.06       2.82
I       9.38       7.51       9.49
I       2.60       7.56      13.11
N       7.05       4.12       5.48
N       3.10       1.77      20.98
N       6.61       2.44      13.86
N       3.60       3.83      12.35
O       0.94       5.18      13.70
O       3.49      -0.46      20.58
O       2.60       3.96      21.39
O       7.48       1.91       5.11
O       5.12       4.89      10.91
O       5.22       0.59      14.22
O       9.23       0.86      13.14
O       8.29       4.94      13.83
O       1.51       1.59      12.06
O       0.72       4.11      10.99
O       9.51       2.65      15.55
O       8.43       3.10      11.73
O       2.02       2.75      14.67
O       6.74       6.36       5.87
