228

Zn       7.53       8.97      15.52
Zn      26.93      10.78      18.18
Zn       8.96      11.84      15.65
Zn      25.39      11.71      15.59
Zn      18.32       7.29       8.77
Zn      16.82       4.41       8.68
Zn      18.55       5.49       6.16
Zn      19.97       4.49       8.87
Zn      16.09      16.33      22.39
Zn      17.60      15.37      25.05
Zn      15.84      18.09      25.03
Zn      14.44      15.19      24.93
Zn      17.58       4.92      31.90
Zn      14.35       4.86      31.79
Zn      24.74      19.84      31.75
Zn      18.29      17.66       1.96
H      20.75       9.39      11.37
H       5.05       6.84      12.99
H      13.68      14.77      19.44
H       9.72      12.31      21.12
H      13.27       5.61      11.04
H      19.17      14.84      19.51
H      16.12      19.73      19.50
H      29.11      18.55      11.35
H      14.39       2.87       1.59
H      13.85       2.54       6.52
H      18.37      14.25       4.81
H       4.61       2.66       1.33
H      11.37       3.59      29.22
H      20.55      16.64      27.61
H      13.86       8.52      29.28
H      21.19       3.74      29.52
C       7.42       7.83      18.24
C       9.77      12.33      18.46
C      10.10       9.51      14.22
C      26.96      13.83      14.26
C      24.64       9.30      14.03
C      24.32      12.15      18.28
C      15.73       6.75      10.11
C      16.03       3.93       5.89
C      18.45       8.44       6.08
C      21.12       4.08       6.18
C      20.77       6.91      10.38
C      18.39       2.37      10.13
C      18.69      14.95      22.34
C      18.37      17.76      26.58
C      15.96      19.27      22.33
C      13.28      17.52      26.33
C      13.64      14.73      22.10
C      16.05      13.22      26.37
C      15.95       6.95      30.48
C      22.21      20.20      30.22
C      27.35      20.33      30.47
C      18.43      14.72       1.98
C      12.19       1.51       2.22
C       7.07       1.34       2.00
C      23.65       8.72      13.06
C      21.80       7.52      11.28
C      22.54       9.43      12.57
C      22.93       6.83      11.74
C      21.62       8.84      11.72
C      23.83       7.40      12.62
C      10.76      12.99      19.37
C      12.61      14.13      21.18
C      11.88      13.70      18.92
C      11.48      13.45      21.64
C      12.80      14.24      19.80
C      10.58      12.86      20.76
C      12.39       9.64      13.02
C      13.48       6.64      11.31
C      11.22       9.00      13.42
C      14.64       7.30      10.92
C      12.66       7.49      12.08
C      13.21       8.78      12.26
C      23.09      12.69      20.49
C      19.92      14.41      20.17
C      23.24      12.69      19.11
C      19.79      14.40      21.55
C      21.13      13.79      19.78
C      21.88      13.32      20.88
C       7.31       6.49      20.45
C       7.43       2.89      20.15
C       7.39       6.63      19.07
C       7.34       2.79      21.53
C       7.40       4.25      19.75
C       7.31       5.14      20.84
C      25.86      15.73      12.89
C      28.09      18.20      11.48
C      26.94      15.05      13.46
C      27.00      18.85      10.94
C      27.68      17.06      12.20
C      26.28      16.87      12.18
C      15.08       3.28       4.93
C      13.19       2.09       3.19
C      15.22       3.35       3.53
C      13.06       1.99       4.58
C      14.29       2.79       2.68
C      13.97       2.60       5.44
C      18.47       9.78       3.86
C      18.40      13.38       4.16
C      18.44       9.65       5.25
C      18.42      13.48       2.77
C      18.41      12.03       4.55
C      18.45      11.13       3.46
C       3.77       2.91       5.82
C       4.82       2.50       2.38
C       2.59       3.53       5.40
C       5.98       1.88       2.82
C       4.01       2.87       3.47
C       4.57       2.53       4.72
C      19.32      18.39      27.55
C      21.21      19.54      29.32
C      19.17      19.70      28.03
C      21.34      18.21      28.87
C      20.11      20.28      28.88
C      20.43      17.66      27.98
C      17.15      11.30      27.72
C      14.89       8.86      29.15
C      16.07      12.00      27.18
C      15.98       8.18      29.68
C      15.31      10.00      28.44
C      16.72      10.16      28.44
C      30.64      17.41      27.55
C      29.60      20.42      29.26
C      31.81      18.03      27.14
C      28.44      19.77      29.66
C      30.41      19.55      28.50
C      29.84      18.27      28.33
S      11.14       7.35      12.87
S      14.74       8.94      11.48
S      21.91      13.46      18.28
S      21.12      13.65      22.38
S       7.47       5.09      18.25
S       7.24       4.32      22.35
S      28.46      15.82      13.11
S      25.47      18.10      11.29
S      18.39      11.19       6.06
S      18.46      11.95       1.95
S       2.48       3.65       3.66
S       6.09       1.74       4.55
S      14.54      11.26      27.56
S      17.51       8.92      29.32
S      31.93      19.68      27.71
S      28.32      18.13      29.12
Br      12.91      11.40      13.41
Br      24.26      11.98      21.77
Br       7.19       7.87      21.72
Br      24.05      15.25      13.00
Br      18.50       8.39       2.60
Br       4.30       2.58       7.58
Br      18.97      11.72      27.58
Br      30.10      15.65      27.17
N      22.30      10.85      12.90
N      23.26       5.46      11.28
N      12.13      13.96      17.48
N      11.14      13.33      23.08
N      16.40       3.99       2.88
N      11.98       1.21       5.23
N      18.00      20.54      27.70
N      22.42      17.32      29.33
O       7.38      10.81      16.22
O       7.39       7.65      16.97
O       8.72      11.87      19.01
O      10.12      10.75      14.52
O       7.49       8.96      18.84
O       9.19       8.66      14.52
O      10.07      12.28      17.23
O       8.48      13.48      14.71
O      24.32      10.41      14.56
O      25.86      13.22      14.45
O       6.05       8.62      14.24
O      25.27      11.53      18.87
O      24.21      12.35      17.02
O      18.40       5.43       8.12
O      16.72       7.52       9.89
O      15.85       3.67       7.12
O      18.59       7.32       5.49
O      15.58       5.55       9.68
O      18.32       8.63       7.35
O      16.91       4.70       5.38
O      20.13       4.53       5.50
O      20.84       5.66      10.20
O      21.23       4.07       7.45
O      19.90       7.71       9.89
O      17.25       2.84       9.78
O      19.54       2.86       9.85
O      15.99      16.25      24.34
O      17.68      15.42      21.70
O      18.55      16.52      26.35
O      15.82      19.41      23.59
O      18.83      14.90      23.61
O      16.10      18.17      21.69
O      17.49      18.51      26.06
O      14.27      18.32      26.16
O      13.56      14.41      23.33
O      13.17      16.34      25.85
O      14.51      15.48      21.55
O      17.17      13.73      26.04
O      14.89      13.66      26.06
O      15.96       3.97      32.47
O      17.09       6.54      30.90
O      21.87      21.34      30.69
O      26.40      19.53      30.77
O      14.81       6.40      30.67
O      18.81       3.86      30.81
O      23.30      19.58      30.41
O      18.43      14.57       0.71
O      11.11       1.07       2.72
O      18.43      15.82       2.62
O      12.52       1.53       1.00
O       6.98       1.51       0.73
O       8.01       0.74       2.63
O      23.00      11.68      12.31
O      21.37      11.09      13.68
O       4.09       5.36      10.14
O      23.11       4.54      12.09
O      11.43      14.83      16.95
O      13.05      13.33      16.95
O      10.68      14.34      23.62
O      11.27      12.22      23.59
O      17.44       3.33       2.88
O      16.21       5.08       2.34
O      20.72      17.69       5.21
O      11.10       1.86       5.80
O      16.95      20.29      28.29
O       9.56       3.76      26.90
O      22.31      16.87      30.48
O      23.30      17.04      28.51
