184

Cu       4.37       9.00      18.60
Cu       4.37       9.00      10.18
Cu       4.37       0.59      18.59
Cu       2.46      10.18       0.59
Cu       4.37       0.59      10.18
Cu       2.46      18.60       0.59
Cu       2.45      10.18       9.00
Cu       2.46      18.60       9.00
H       3.61      14.39       0.23
H       3.61       9.82       4.79
H       3.61      18.95       4.79
H       3.22       9.36      14.39
H       3.61      14.39       9.36
H       3.21       4.79      18.95
H       3.22       4.79       9.82
H       3.21       0.23      14.39
H       0.21      12.24      17.92
H       0.21       8.33       6.94
H       0.21       1.26       2.65
H       6.61      10.85      16.53
H       0.21      16.53      10.85
H       6.61       2.65       1.26
H       6.61       6.94       8.33
H       6.62      17.92      12.24
H       6.62       6.94       1.26
H       6.61      10.85      12.24
H       6.61      17.92      16.53
H       0.21       8.33       2.65
H       6.61       2.65       8.33
H       0.21      16.53      17.92
H       0.21      12.24      10.85
H       0.21       1.26       6.94
H       2.26      15.28      17.32
H       2.26       7.73       3.90
H       2.26       1.86       5.69
H       4.56      11.45      13.49
H       2.26      13.49      11.45
H       4.56       5.69       1.86
H       4.56       3.90       7.73
H       4.56      17.32      15.28
H       4.56       3.90       1.86
H       4.56      11.45      15.28
H       4.56      17.32      13.49
H       2.26       7.73       5.69
H       4.56       5.69       7.73
H       2.26      13.49      17.32
H       2.26      15.28      11.45
H       2.26       1.86       3.90
H       1.51      14.39      15.99
H       1.51       6.39       4.80
H       1.51       3.20       4.80
H       5.31      12.79      14.39
H       1.51      14.39      12.79
H       5.31       4.80       3.20
H       5.31       4.80       6.39
H       5.31      15.99      14.39
H       6.46       7.48      17.10
H       6.46       7.49      11.68
H       6.46       2.09      17.09
H       0.36      11.70       2.08
H       6.46       2.08      11.70
H       0.36      17.09       2.09
H       0.36      11.68       7.50
H       0.36      17.10       7.48
H       0.24       8.51      18.13
H       0.24       8.53      10.65
H       0.24       1.07      18.12
H       6.58      10.67       1.05
H       0.24       1.05      10.67
H       6.59      18.12       1.06
H       6.58      10.66       8.53
H       6.58      18.13       8.52
C       4.60      14.39      18.97
C       4.60       9.38       4.79
C       4.60       0.21       4.79
C       2.22       9.80      14.39
C       4.60      14.39       9.80
C       2.22       4.79       0.21
C       2.22       4.80       9.38
C       2.22      18.97      14.39
C       5.25      13.18      18.68
C       5.25       9.09       6.00
C       5.25       0.50       3.59
C       1.58      10.09      15.59
C       5.25      15.59      10.09
C       1.58       3.59       0.50
C       1.58       6.00       9.09
C       1.58      18.68      13.18
C       1.58       6.00       0.50
C       1.58      10.09      13.18
C       1.58      18.68      15.59
C       5.25       9.09       3.59
C       1.58       3.59       9.09
C       5.25      15.59      18.68
C       5.25      13.18      10.09
C       5.25       0.50       6.00
C       6.53      13.19      18.11
C       6.53       8.52       6.00
C       6.53       1.07       3.59
C       0.29      10.66      15.59
C       6.53      15.59      10.66
C       0.29       3.60       1.07
C       0.29       6.00       8.52
C       0.29      18.11      13.19
C       0.29       6.00       1.07
C       0.29      10.66      13.19
C       0.29      18.11      15.59
C       6.53       8.52       3.60
C       0.29       3.60       8.52
C       6.53      15.59      18.11
C       6.53      13.19      10.66
C       6.53       1.07       6.00
C       0.35      14.39      17.80
C       0.35       8.20       4.80
C       0.35       1.39       4.80
C       6.47      10.98      14.39
C       0.35      14.39      10.98
C       6.47       4.80       1.39
C       6.47       4.80       8.20
C       6.47      17.80      14.39
C       1.67      14.39      17.08
C       1.68       7.49       4.80
C       1.67       2.10       4.80
C       5.15      11.70      14.39
C       1.68      14.39      11.70
C       5.15       4.80       2.10
C       5.15       4.80       7.49
C       5.15      17.08      14.39
C       4.55      11.88      18.91
C       4.55       9.32       7.30
C       4.55       0.27       2.29
C       2.27       9.87      16.89
C       4.55      16.89       9.87
C       2.27       2.29       0.27
C       2.27       7.30       9.32
C       2.27      18.91      11.88
C       2.27       7.30       0.27
C       2.27       9.86      11.88
C       2.27      18.91      16.89
C       4.55       9.32       2.29
C       2.27       2.29       9.31
C       4.55      16.89      18.91
C       4.55      11.88       9.86
C       4.55       0.27       7.30
O       5.16      10.83      18.50
O       5.16       8.90       8.35
O       5.16       0.69       1.24
O       1.67      10.29      17.94
O       5.16      17.94      10.29
O       1.66       1.24       0.69
O       1.66       8.35       8.90
O       1.66      18.50      10.83
O       1.66       8.35       0.68
O       1.67      10.28      10.83
O       1.66      18.49      17.94
O       5.16       8.89       1.24
O       1.67       1.24       8.89
O       5.16      17.94      18.49
O       5.16      10.83      10.28
O       5.16       0.69       8.35
O       3.41      11.90       0.30
O       3.41       9.89       7.28
O       3.41      18.88       2.31
O       3.41       9.29      16.87
O       3.41      16.88       9.29
O       3.41       2.31      18.88
O       3.41       7.28       9.89
O       3.41       0.30      11.90
O       3.41       7.28      18.88
O       3.41       9.29      11.90
O       3.41       0.30      16.87
O       3.41       9.89       2.31
O       3.41       2.31       9.89
O       3.41      16.87       0.30
O       3.41      11.90       9.29
O       3.41      18.88       7.28
O       6.24       8.18      17.73
O       6.24       8.16      11.02
O       6.23       1.43      17.75
O       0.59      11.00       1.45
O       6.24       1.45      11.00
O       0.59      17.75       1.43
O       0.59      11.02       8.16
O       0.59      17.74       8.18
