61

Al       0.01       4.06       6.95
H       2.00      14.21       1.08
H       1.97       9.91       1.08
H       2.03      12.06       4.80
H       3.17      -0.45       2.30
H       0.76      -2.25       5.39
H       0.83       5.84      13.17
H       3.25       2.26      13.20
H       3.19       8.52       2.29
H       0.81      10.31       5.40
H       0.19       0.76       7.14
H       3.99      -0.89       7.10
H       3.78       2.52       4.10
H       3.92       1.71       2.66
H       0.22       5.76       9.71
H       0.08       6.61      11.13
H       3.81       2.25       9.71
H       0.02       1.46      11.16
H       3.53       5.37       3.93
H       3.95       6.36       2.59
H       0.47       7.33       7.32
H       0.05       8.99       7.12
C       2.01       4.02       9.05
C       2.00       5.84       5.92
C       1.99       2.21       5.94
C       2.02      12.06       0.90
C       2.00      13.26       1.62
C       1.98      13.28       3.02
C       1.99      12.06       3.71
C       2.00      10.84       3.02
C       2.01      10.85       1.62
C       2.64       0.83       3.94
C       2.60      -0.37       3.23
C       1.97      -1.50       3.76
C       1.33      -1.41       5.00
C       1.30      -0.20       5.72
C       1.98       0.92       5.19
C       1.40       5.07      12.64
C       1.36       5.05      11.24
C       2.02       4.02      10.55
C       2.70       3.00      11.25
C       2.67       3.02      12.66
C       2.03       4.05      13.36
C       2.64       8.44       3.23
C       2.67       7.22       3.92
C       2.00       7.09       5.19
C       1.33       8.25       5.71
C       1.36       9.46       5.00
C       2.00       9.56       3.76
N       0.66      -0.13       6.95
N       3.28       1.95       3.41
N       0.72       6.08      10.54
N       3.34       1.97      10.57
N       3.29       6.15       3.32
N       0.71       8.24       6.94
O       1.05       3.05       5.70
O       1.07       3.40       8.44
O       1.09       5.61       6.81
O       2.93       2.44       6.77
O       2.92       4.95       5.68
O       2.96       4.64       8.45
