192

Al       4.52       2.74      14.27
Al       6.29       5.42      14.24
Al       7.73       2.79      14.22
Al      -1.98       8.41      28.42
Al      -0.23       5.72      28.47
Al       1.28       8.49       0.01
H      10.65       3.43       6.30
H       5.28       6.35      22.62
H       4.86       1.31      22.51
H       9.40       3.35      22.26
H       8.06       3.32       7.42
H       5.81       2.29       7.62
H       5.60       4.66       7.39
H       1.49       7.37      21.92
H      -0.63       8.91      21.81
H      -0.84       6.15      21.60
H       7.25       5.42       5.68
H       4.15       0.43       6.25
H       8.01       1.45       6.01
H       3.43       3.48       6.00
H       1.17       5.06      20.29
H       1.58       9.76      20.22
H      -2.72       7.67      20.12
H      -2.42       7.42       6.55
H       0.52       9.04       6.62
H       1.26       6.78       6.60
H       4.97       4.04      20.99
H       7.06       2.17      20.92
H       5.19       7.07       5.94
H       7.51       4.87      20.77
H      -4.52       9.07       6.33
H       7.11       8.15       5.75
H       6.87       9.44       6.94
H       6.77       7.26       8.14
H       8.22       8.12       8.64
H       3.20       9.67       6.36
H      10.16      -0.03       6.31
H       4.53      10.24       7.38
H       9.39       0.29       8.69
H       3.97       7.90      20.64
H       2.50       9.99       8.82
H      -0.05       4.38       6.58
H       0.92       2.90       6.48
H      -0.40       3.02       7.66
H       1.84       3.34       8.79
H       0.84       4.78       8.95
H       1.49       2.40      20.54
H       3.20       1.99      20.74
H       1.97       1.12      21.68
H       3.08       2.80      23.17
H      -2.28      10.81      20.49
H       1.40       3.26      22.91
H       3.74      11.29      20.55
H       9.71       1.58      20.67
H      11.05       0.99      21.67
H       9.02       1.15      23.12
H       2.97      10.86      22.91
H       7.81       8.70      20.52
H       6.62       7.41      20.71
H       6.52       8.87      21.73
H       7.49       7.01      23.09
H      -1.68       3.80      20.24
H      -4.30       8.24      22.84
H      -1.62       5.32       8.29
H      -1.69       9.88       8.22
H       3.44       7.96       7.99
H       2.69       1.55      13.45
H      -3.80       9.72       0.73
C       6.39       1.25      12.37
C       3.00       5.77      22.81
C       0.01      11.00      22.71
C      -2.95       5.60      22.54
C       8.17       5.39       6.28
C       7.30       0.80       6.52
C       3.43       4.47       6.45
C       2.08       5.35      20.82
C       0.87      10.41      20.74
C      -2.92       6.71      20.61
C       8.62       4.23       7.21
C       4.36       5.05      12.30
C       6.07       1.25       7.37
C       4.64       5.13       7.20
C       2.26       6.63      21.69
C      -0.36       9.94      21.59
C      -1.88       5.86      21.40
C      -3.06       5.61       4.28
C      -0.10      10.88       4.38
C       2.88       5.94       4.27
C       3.71       5.53      18.71
C       6.42       0.39      18.64
C       8.27       4.83      12.29
C       9.34       5.30      18.45
C       8.80       5.17       9.72
C       6.44       0.42       9.86
C       3.88       5.51       9.74
C       2.73       5.86      24.19
C       0.02      10.72      24.09
C      -2.71       5.71      23.93
C       6.39       1.33      16.16
C       4.35       5.06      16.18
C       8.48       4.88      15.99
C      -0.06       9.86      26.59
C      -0.12       9.98       1.89
C      -2.21       6.17       1.83
C       1.95       6.41       1.84
C      -2.53       5.34       7.69
C      -0.97      10.53       7.71
C       3.44       6.97       7.54
C       4.37       6.06      22.09
C       5.57       0.66      21.98
C       9.59       4.31      21.77
C      10.06       4.29       6.62
C      -2.12       6.13      26.48
C       5.15       0.22       6.65
C       4.41       6.47       6.42
C       3.64       6.92      21.01
C      -1.28      11.00      20.89
C      -2.34       4.56      20.67
C      -2.73       5.79       3.12
C      -0.09      10.57       3.20
C       2.54       6.09       3.11
C       3.93       5.38      17.52
C       6.43       0.73      17.46
C       1.92       6.24      26.68
C       9.05       5.17      17.28
C       8.65       5.07      10.93
C       6.44       0.69      11.05
C       4.03       5.37      10.94
C       2.45       5.96      25.38
C       0.02      10.43      25.28
C      -2.50       5.83      25.13
C      -2.99       6.51       6.76
C       0.25      10.07       6.86
C       2.23       6.31       6.79
C       9.03       5.28       8.33
C       4.19       4.78      21.21
C       6.79       1.13      21.14
C       8.55       5.15      20.98
C       9.62       5.46       5.64
C      -0.10      11.16       5.76
C       3.20       5.81       5.64
C       3.46       5.64      20.10
C       6.43       0.08      20.01
C       9.63       5.41      19.83
C       8.58       6.45       7.36
C       6.43       0.17       8.47
C       1.18      11.10       7.59
C       2.45       4.97       7.57
C       2.82       4.48      21.90
C       7.72       0.08      21.83
C       9.01       6.46      21.71
C       7.74       7.63       7.78
C       7.54       8.63       6.64
C       2.56      10.82       8.11
C       3.55      10.50       6.98
C       1.38       4.15       8.21
C       3.66       5.64       8.35
C       0.41       3.58       7.18
C       2.37       3.14      22.40
C       2.25       2.11      21.28
C       9.09       0.35      22.37
C      10.07       0.73      21.26
C       8.10       7.49      22.31
C       7.21       8.16      21.26
O       4.01       3.92      12.73
O      -1.20       9.57      27.04
O      -1.39       5.26      27.09
O       2.21       7.38      27.19
O       3.95       3.98      15.68
O       7.67       5.74      15.50
O       7.53       1.55      15.59
O      -2.54       7.30       1.37
O       1.13       5.56       1.34
O       1.03       9.76       1.34
O       5.25       1.62      15.71
O       7.55       5.73      12.86
O       5.15       5.91      15.62
O       8.78       3.76      15.46
O      -1.25       9.68       1.42
O      -1.40       5.33       1.27
O       2.25       7.54       1.33
O       6.20       3.66      14.24
O      -0.31       7.48      28.47
O       7.52       1.46      12.95
O      -2.51       7.24      26.95
O       1.13       5.37      27.20
O       1.07       9.63      27.18
O       5.25       1.55      12.84
O       5.04       5.93      12.96
O       8.62       3.72      12.81
O       2.97       1.93      14.29
O      -3.52       9.24      28.37
