86

Al       0.06      27.96      24.22
Al       0.03      27.96       8.07
H       2.72      26.24      11.85
H       2.61      26.31      14.36
H       1.74      25.46      18.13
H       2.23      29.75      17.91
H       2.72      25.55       4.70
H       2.61      23.34       3.50
H       1.73      20.51       0.88
H       2.22      18.55       4.71
H       2.72      32.09       7.67
H       2.61       6.27       6.36
H       1.73       9.96       5.21
H       2.22       7.62       1.61
C       2.03      12.28       1.15
C       2.04      27.82      22.17
C       2.03      15.83       0.90
C       2.01      28.15      10.12
C       2.01      26.09       7.22
C       2.01      29.64       6.89
C       2.01      28.25      11.61
C       2.39      27.14      12.38
C       2.34      27.17      13.76
C       1.95      28.35      14.43
C       1.61      29.48      13.66
C       1.62      29.42      12.27
C       1.84      26.42      18.63
C       1.98      27.59      17.87
C       2.14      28.84      18.50
C       2.16      28.88      19.88
C       2.02      27.73      20.68
C       1.85      26.52      20.01
C       2.01      24.76       6.56
C       2.39      24.65       5.21
C       2.34      23.43       4.55
C       1.94      22.27       5.23
C       1.61      22.36       6.60
C       1.61      23.60       7.24
C       1.84      19.60       1.46
C       1.97      19.66       2.86
C       2.13      18.50       3.62
C       2.16      17.28       2.97
C       2.01      17.16       1.57
C       1.84      18.35       0.85
C       2.01      30.87       6.05
C       2.39       4.14       6.63
C       2.33       5.32       5.91
C       1.94       5.31       4.56
C       1.60       4.08       3.96
C       1.61       2.90       4.71
C       1.84       9.91       4.13
C       1.97       8.67       3.49
C       2.13       8.58       2.10
C       2.16       9.76       1.38
C       2.01      11.03       1.97
C       1.84      11.06       3.36
N       1.91      28.51      15.82
N       1.95      27.42      16.47
N       1.91      20.98       4.68
N       1.94      20.96       3.41
N       1.90       6.43       3.72
N       1.94       7.54       4.34
O       1.10      15.58       0.07
O       1.10      13.12       1.35
O       1.11      27.22      22.80
O       2.98      15.04       1.21
O       2.98      28.48      22.70
O       2.98      12.41       0.31
O       1.07      28.80       6.71
O       1.07      28.73       9.48
O       1.07      26.36       8.03
O       2.94      29.53       7.75
O       2.94      26.90       6.88
O       2.94      27.46       9.59
F       1.27      30.53      11.59
F       1.25      30.63      14.25
F       1.72      25.38      20.73
F       2.30      30.08      20.49
F       1.27      23.63       8.55
F       1.24      21.28       7.30
F       1.72      32.27      23.73
F       2.30      16.15       3.70
F       1.27      29.72       4.09
F       1.24       4.01       2.67
F       1.71      12.25       3.98
F       2.30       9.69       0.03
