190

Zn       8.02      -4.50      15.36
Zn      -0.04       0.07       1.85
Zn      -8.05      -4.50      15.39
Zn       0.09       9.73      15.34
Zn      -8.01       4.90       8.65
Zn       9.80       5.85       6.00
Zn      -9.61       7.65       8.68
Zn       8.11       4.82       8.55
H      14.64       2.16       2.33
H      15.22       0.88       3.42
H      -2.20       2.85       3.95
H      -3.62       3.83       3.69
H      -5.30       2.70       6.67
H      13.48       2.04       5.10
H      -4.77       4.90       5.43
H      13.49       4.30       4.10
H      -1.17       1.72       5.13
H      -0.12      -0.12       6.32
H      -1.46      -1.56       7.88
H      -3.89      -1.09       8.18
H      -4.96       0.75       6.98
H       8.74      -0.50      13.55
H      -8.93      -0.40      14.27
H      -8.30      -1.94      12.11
H       9.68      -1.01      11.40
H      -7.79       2.09      11.42
H      -9.12       1.81      12.56
H      10.17       0.61       9.74
H       8.74       1.00      10.73
H      -6.48      -2.02      12.71
H      -4.37      -1.99      13.93
H      -3.38       0.17      14.73
H      -4.61       2.30      14.28
H      -6.73       2.29      13.08
H      -3.82      10.38      12.18
H      -2.43       9.34      11.82
H      -3.42       7.98      13.98
H      -4.93       8.59      13.32
H      -4.83       6.51      10.40
H      -4.52       8.25      10.27
H      -6.46       7.09      12.33
H      -6.50       8.74      11.65
H      -1.92       6.79      13.84
H       0.15       5.59      13.41
H       0.69       4.73      11.12
H      -0.93       5.14       9.26
H      -3.01       6.36       9.66
H       6.88       3.26       3.88
H       6.69       2.30       5.36
H       4.91       4.34       5.90
H       4.70       4.20       4.16
H       3.10       0.97       4.33
H       4.75       1.14       3.69
H       2.62       3.31       3.35
H       4.05       3.06       2.31
H       4.59       3.60       7.66
H       4.71       2.43       9.80
H       4.49      -0.06       9.92
H       4.17      -1.34       7.80
H       4.07      -0.20       5.64
H      -8.83      10.88       5.72
H      -8.08       9.69       4.63
H       8.55       9.32       3.98
H       8.55      11.04       4.31
H      10.48      11.86       1.39
H      -8.09      11.99       3.00
H       8.24      12.54       2.46
H     -10.10      13.16       3.83
H       9.06       7.85       2.84
H      10.13       5.99       1.67
H      12.12       6.38       0.20
H       3.42       3.15      16.09
H      11.99      10.56       1.16
H       5.53       6.90      11.51
H     -12.33       7.78      12.07
H       6.14       9.39       9.94
H       4.60       8.90      10.63
H     -14.28      10.84      13.62
H     -14.01       9.09      13.73
H       3.24      10.33      11.82
H       3.23       8.66      12.43
H     -11.56      10.46      10.04
H      -9.36      11.42      10.40
H      -8.62      12.11      12.69
H     -10.18      11.76      14.61
H     -12.38      10.77      14.28
C      16.61       1.39       1.94
C      15.51       1.80       2.90
C      -3.29       2.82       3.97
C      -5.15       2.79       5.59
C      -5.58       4.20       5.17
C      -6.80       4.65       5.96
C      -3.16       1.42       5.96
C      -1.79       1.12       5.79
C      -1.19       0.07       6.47
C      -1.93      -0.74       7.34
C      -3.29      -0.47       7.51
C      -3.90       0.58       6.83
C      -9.69      -2.35      14.20
C      -9.57      -0.98      13.58
C      -8.86      -1.00      12.20
C      -8.58       1.39      11.68
C       9.75       1.32      10.48
C       9.68       2.66       9.76
C      -6.77       0.14      12.75
C      -6.08      -1.06      13.04
C      -4.88      -1.04      13.74
C      -4.33       0.16      14.19
C      -5.01       1.35      13.93
C      -6.22       1.34      13.23
C      -2.32      10.25      13.70
C      -3.15       9.63      12.60
C      -3.89       8.35      13.06
C      -4.83       7.44      10.97
C      -6.28       7.69      11.42
C      -7.27       7.19      10.39
C      -2.67       6.65      11.80
C      -1.73       6.43      12.83
C      -0.54       5.75      12.58
C      -0.24       5.27      11.30
C      -1.15       5.50      10.27
C      -2.34       6.18      10.51
C       7.44       4.22       5.72
C       6.54       3.30       4.92
C       5.03       3.65       5.05
C       3.87       1.71       4.06
C       3.29       2.55       2.91
C       2.42       1.71       1.99
C       4.28       1.81       6.47
C       4.49       2.51       7.67
C       4.56       1.85       8.89
C       4.44       0.46       8.96
C       4.25      -0.26       7.78
C       4.19       0.40       6.55
C      -9.36       8.82       6.05
C      -9.03       9.98       5.13
C       9.19      10.20       4.03
C      10.25      11.79       2.45
C       9.24      12.89       2.77
C       9.51      14.15       1.96
C      10.40       9.38       2.07
C       9.93       8.06       2.21
C      10.54       7.00       1.54
C      11.65       7.21       0.72
C      12.15       8.51       0.60
C      11.55       9.58       1.26
C       7.14       7.06      10.12
C     -13.01       7.64      11.22
C     -13.62       9.02      10.86
C     -14.34       9.90      13.06
C       3.48       9.70      12.69
C       2.55      10.15      13.80
C     -12.18      10.55      12.12
C     -11.28      10.74      11.05
C     -10.02      11.29      11.25
C      -9.61      11.68      12.53
C     -10.48      11.48      13.60
C     -11.74      10.92      13.41
N      -3.74       2.53       5.32
N      -7.95       0.11      11.98
N      -3.90       7.28      12.07
N       4.16       2.50       5.25
N       9.74      10.45       2.70
N     -13.47      10.04      11.89
O       9.63      -5.43      16.01
O      -1.54       1.17       2.46
O      16.31       1.29       0.70
O      11.56       5.24       5.32
O      -6.77       4.43       7.22
O      -8.63      -3.07      14.17
O       8.48      -2.69      14.70
O       8.54       3.08       9.39
O      -8.49       3.25       9.57
O      -1.59       9.44      14.37
O      -2.39      11.51      13.88
O      -8.24       7.95      10.07
O      -7.04       6.02       9.93
O       7.07       4.46       6.92
O       8.49       4.67       5.15
O       2.58       1.87       0.73
O       1.57       0.94       2.55
O       9.58       7.74       5.49
O      -9.25       9.01       7.31
O      -9.80      15.26       2.59
O       9.71      13.99       0.71
O     -11.38       7.87       9.50
O       7.06       5.80       9.90
O       1.57       9.38      14.09
O     -16.49      11.29      14.32
O       9.70       5.81       7.97
