122

Zn      10.07       6.45       8.45
Zn      11.07       9.10       8.63
H      10.49       4.00       9.70
H      10.75      11.51       7.28
H       9.70       1.59       9.74
H      11.46      13.95       7.31
H       6.16       7.31       9.04
H      14.99       8.26       8.73
H       7.19      11.44       8.76
H      13.94       4.14       8.98
H      16.32       3.53       9.42
H       4.79      12.08       8.94
H       4.82       5.99       9.69
H      16.28       9.66       9.12
H      11.93       6.91       1.62
H       9.07       9.19      15.27
H      11.98       6.06      15.30
H       8.35       9.22       2.05
H      14.79       6.14       5.89
H      15.43       6.35       4.25
H      15.80       7.55       5.50
H      13.99       8.38       3.91
H      13.40       8.26       5.57
H      12.32       6.09       5.08
H      13.04       6.06       3.47
H       8.70      11.53      10.63
H       7.68      11.97      12.02
H       9.20      12.84      11.73
H       9.58      11.20      13.57
H      10.49      10.69      12.15
H       8.56       9.13      11.56
H       7.80       9.56      13.10
H      13.55       3.37      11.84
H      14.75       4.66      11.95
H      14.74       3.36      13.16
H      13.73       5.48      14.08
H      12.56       4.16      14.06
H      11.59       5.02      11.93
H      12.80       6.28      11.85
H       5.77       9.82       5.86
H       6.64      11.37       5.84
H       5.29      11.09       4.71
H       7.46      10.85       3.49
H       6.62       9.31       3.54
H       8.00       8.65       5.56
H       8.86      10.17       5.46
C      10.42       7.48      11.13
C      10.62       8.05       5.96
C       3.78       6.27       9.52
C      17.32       9.37       9.13
C       2.82       5.29       9.56
C      18.28      10.34       9.11
C      10.42       7.50      12.63
C      10.49       8.10       4.47
C       9.62       8.44      13.32
C      11.43       7.43       3.66
C       9.67       8.48      14.71
C      11.23       7.42       2.28
C      10.53       7.62      15.41
C      10.11       8.05       1.72
C      11.32       6.70      14.71
C       9.20       8.74       2.53
C      11.29       6.62      13.32
C       9.37       8.76       3.92
C      11.48      11.90       7.99
C       9.68       3.65       9.06
C      11.87      13.22       8.01
C       9.24       2.34       9.09
C      12.93       6.67       8.61
C       8.22       8.91       8.70
C      12.79      13.64       8.98
C       8.19       1.96       8.24
C      13.32      12.70       9.88
C       7.60       2.93       7.41
C      12.90      11.36       9.76
C       8.12       4.24       7.44
C      14.35       6.25       8.84
C       6.79       9.32       8.89
C      16.03       4.57       9.27
C       5.09      11.03       8.98
C      14.71       4.90       9.03
C       6.42      10.68       8.88
C      15.32       7.24       8.91
C       5.82       8.34       9.05
C      16.67       6.95       9.16
C       4.46       8.66       9.17
C      17.04       5.57       9.34
C       4.08      10.04       9.10
C      17.68       7.99       9.19
C       3.44       7.63       9.29
C      12.63       6.73       4.24
C      13.76       7.67       4.72
C      15.01       6.89       5.11
C       8.77       9.46      12.59
C       9.47      10.83      12.54
C       8.72      11.85      11.68
C      12.20       5.68      12.56
C      13.15       4.83      13.41
C      14.10       4.01      12.55
C       8.35       9.41       4.84
C       7.13      10.05       4.17
C       6.16      10.62       5.20
Br       3.39       3.50       9.94
Br      17.70      12.16       9.07
Br      14.58      13.23      11.17
Br       6.13       2.46       6.34
Br      13.62      10.04      10.90
Br       7.40       5.56       6.31
N      10.74       7.64      16.80
N       9.82       8.03       0.33
N      11.99      10.98       8.86
N       9.14       4.57       8.24
N      13.17      14.99       9.14
N       7.78       0.62       8.10
O      10.04       6.42      10.53
O      10.91       9.13       6.58
O      10.83       8.55      10.57
O      10.40       6.92       6.50
O      12.03       5.77       8.63
O       9.11       9.82       8.68
O      12.73       7.91       8.43
O       8.43       7.66       8.57
