204

Al       6.57      13.61      18.15
Al       0.72       4.56       6.06
Al       2.95      13.61      18.10
Al       4.34       4.56       6.02
H       3.03      10.55       9.46
H       6.28       7.22      15.31
H       4.27       7.59      21.53
H       1.02      10.95       3.21
H       4.53      16.37       3.14
H       2.60       1.89      20.95
H       2.75       1.81      15.23
H       4.68      16.28       8.88
H       6.26      12.40      10.38
H       0.80       5.74      13.73
H       1.03       5.75      22.46
H       6.49      12.42       1.63
H       2.53      14.91       1.56
H       4.52       3.32      22.50
H       4.75       3.27      13.66
H       2.77      14.85      10.42
H       1.43       7.11       8.71
H       3.29      10.89      12.63
H       5.86      11.03      20.78
H       4.01       7.27       0.55
H       5.13       1.91       3.33
H       6.94      16.35      23.73
H       2.16      16.26      15.42
H       0.34       1.83      11.66
H       4.77      11.95      17.53
H       2.52       6.22       5.45
H       1.14      15.27      18.73
H       6.15       2.90       6.64
C       4.78      15.11      16.34
C       2.54       3.19       7.91
C       2.51       3.07       4.25
C       4.75      14.97      20.00
C       1.16      12.11      19.92
C       6.15       5.93       4.18
C       6.13       6.05       7.84
C       1.13      12.24      16.26
C       6.40       9.73      11.22
C       0.68       8.35      13.04
C       0.89       8.43      23.30
C       6.61       9.81       0.95
C       2.82      17.55       0.88
C       4.28       0.72      23.19
C       4.46       0.62      12.97
C       3.00      17.45      11.11
C       0.69      10.00      11.51
C       6.39       8.08      12.75
C       6.60       8.15      23.59
C       0.90      10.08       0.65
C       4.34      17.25       0.55
C       2.76       1.03      23.52
C       2.94       0.93      12.64
C       4.52      17.15      11.45
C       1.05      11.46      15.06
C       6.13       6.73       9.11
C       6.24       6.71       2.98
C       1.16      11.42      21.18
C       4.66      15.77      21.19
C       2.53       2.38       2.99
C       2.62       2.40       9.11
C       4.75      15.80      15.07
C       6.11       9.63      12.78
C       0.98       8.44      11.49
C       1.18       8.52       0.68
C       6.32       9.71      23.57
C       2.49      17.64      23.50
C       4.62       0.63       0.56
C       4.80       0.53      11.42
C       2.67      17.55      12.65
C       0.40       9.90      13.06
C       6.69       8.17      11.20
C       6.89       8.26       0.98
C       0.60       9.98      23.27
C       4.01      17.34      23.17
C       3.10       0.93       0.89
C       3.27       0.83      11.10
C       4.18      17.25      12.98
C       0.83      10.77      14.09
C       6.28       7.33      10.15
C       6.46       7.39       2.00
C       1.01      10.82      22.22
C       4.43      16.47      22.15
C       2.71       1.77       1.95
C       2.86       1.70      10.07
C       4.57      16.40      14.04
S       1.57      11.42      10.79
S       5.58       6.60      13.41
S       5.73       6.73      22.88
S       1.71      11.57       1.31
S       5.10      15.75       1.22
S       1.99       2.54      22.87
S       2.18       2.42      13.31
S       5.30      15.64      10.80
S       5.65      10.48       9.75
S       1.51       7.59      14.48
S       1.65       7.66      21.83
S       5.78      10.57       2.38
S       2.02      16.81       2.35
S       5.12       1.45      21.74
S       5.26       1.36      14.44
S       2.17      16.72       9.66
S       2.24       7.48      10.68
S       5.03      10.60      13.81
S       5.05      10.67      22.75
S       2.27       7.56       1.73
S       5.91       1.56       1.36
S       1.38      16.66      22.49
S       1.38      16.61      13.46
S       5.90       1.51      10.42
O       3.61      14.67      19.50
O       3.69       3.29       4.72
O       3.68       3.49       7.42
O       3.60      14.88      16.80
O       7.25      12.52      16.77
O       0.07       5.82       7.40
O       0.04       5.65       4.69
O       7.22      12.34      19.48
O       5.91      14.84      16.83
O       1.38       3.49       7.48
O       1.38       3.33       4.75
O       5.91      14.67      19.57
O       2.28      12.36      19.40
O       4.99       5.62       4.59
O       5.01       5.80       7.32
O       2.30      12.55      16.67
O       4.76      12.77      18.05
O       2.53       5.40       5.97
O       1.13      14.44      18.21
O       6.16       3.72       6.12
O       0.59      12.47      10.62
O       2.68      11.78      11.65
O       2.07      10.96       9.42
O       4.32       6.33      12.82
O       6.61       5.58      13.21
O       5.39       6.91      14.91
O       6.71       5.68      22.70
O       4.62       6.37      23.73
O       5.23       7.18      21.50
O       2.98      11.82       0.72
O       0.68      12.58       1.10
O       1.91      11.26       2.81
O       4.07      14.75       1.09
O       6.35      15.44       0.58
O       5.42      16.09       2.69
O       0.75       2.86      23.49
O       3.07       3.51      23.02
O       1.72       2.21      21.38
O       3.21       3.43      13.19
O       0.93       2.73      12.68
O       1.86       2.08      14.78
O       6.53      15.32      11.41
O       4.22      14.66      10.95
O       5.56      15.97       9.30
O       6.67      10.34       8.76
O       4.35       9.93       9.46
O       5.37      11.96      10.18
O       2.78       8.16      14.75
O       0.49       7.73      15.51
O       1.70       6.11      14.07
O       0.63       7.80      20.84
O       2.95       8.21      21.54
O       1.92       6.19      22.26
O       4.51      10.00       2.65
O       6.80      10.44       3.42
O       5.59      12.05       1.96
O       3.10      16.84       3.34
O       0.80      17.44       2.72
O       1.69      15.36       1.91
O       6.35       0.81      21.45
O       4.07       1.38      20.72
O       5.40       2.91      22.16
O       4.18       1.33      15.43
O       6.48       0.74      14.81
O       5.59       2.82      14.00
O       0.93      17.35       9.37
O       3.21      16.80       8.65
O       1.89      15.26      10.09
O       3.47       8.10      11.04
O       1.93       6.10      10.93
O       1.99       7.81       9.14
O       5.20      10.10      15.14
O       5.31      11.97      13.48
O       3.63      10.19      13.30
O       3.82      10.04      23.11
O       5.36      12.05      22.99
O       5.30      10.34      21.21
O       2.09       8.07       3.05
O       1.98       6.19       1.40
O       3.67       7.97       1.21
O       7.13       0.96       0.97
O       5.59       2.95       1.15
O       5.66       1.20       2.90
O       1.52      17.17      21.16
O       1.70      15.30      22.82
O       7.22      17.04      23.04
O       0.15      17.22      13.06
O       1.69      15.23      13.25
O       1.62      16.98      14.99
O       5.76       1.01       9.08
O       5.58       2.87      10.75
O       0.06       1.14      10.96
