110

Al       4.06      -7.15      12.38
Al       4.07       7.15       4.13
H       3.44       9.74       7.24
H       3.47      11.96       8.31
H       0.73      13.40       5.30
H       0.71      11.18       4.26
H       0.73      15.18      11.20
H       3.47      16.62       8.20
H       3.44      18.84       9.26
H       0.72      17.39      12.24
H       3.44       3.15       4.81
H       3.47       1.12       6.21
H       0.72       3.00       8.95
H       0.71       5.01       7.55
H       0.73      -3.00       7.55
H       3.47      -1.12      10.30
H       3.44      -3.15      11.69
H       0.71      -5.01       8.95
H       3.44       8.55       0.32
H       3.47      -5.93      22.62
H       0.72      -9.26      22.87
H       0.71       5.24       0.56
H       0.73      -5.04      18.39
H       3.47      -8.36      18.64
H       3.44      -8.55      16.18
H       0.71      -5.24      15.95
H       1.57      16.27       7.08
H       1.34      15.13       5.74
H       2.96      15.61       6.21
H       1.57      12.31       9.43
H       1.36      13.45      10.77
H       2.97      12.97      10.29
H       1.56       0.02      10.55
H       1.34       1.75      10.24
H       2.96       1.11      10.42
H       1.57      -0.03       5.95
H       1.35      -1.76       6.26
H       2.97      -1.11       6.09
H       1.57      -9.15      19.50
H       1.35      -9.74      21.16
H       2.96      -9.58      20.50
H       1.57      -5.14      21.76
H       1.35      -4.55      20.10
H       2.97      -4.72      20.76
C       2.03      -7.04      14.42
C       2.03      19.61      11.45
C       2.03      -5.43      11.26
C       2.03       8.97       5.05
C       2.03       5.43       5.24
C       2.03       7.04       2.08
C       2.06      10.31       5.69
C       2.83      10.54       6.84
C       2.82      11.79       7.45
C       2.07      12.87       6.93
C       1.34      12.62       5.74
C       1.32      11.37       5.15
C       2.04      14.20       7.57
C       2.04      14.37       8.93
C       1.34      15.96      10.76
C       2.07      15.71       9.58
C       2.83      16.79       9.06
C       2.83      18.04       9.66
C       2.06      18.27      10.81
C       1.32      17.21      11.36
C       2.06       4.21       6.08
C       2.83       3.09       5.71
C       2.82       1.94       6.49
C       2.06       1.86       7.68
C       1.34       3.01       8.06
C       1.32       4.15       7.27
C       2.04       0.63       8.52
C       2.04      -0.63       7.98
C       1.34      -3.01       8.44
C       2.07      -1.86       8.82
C       2.82      -1.95      10.01
C       2.83      -3.10      10.79
C       2.06      -4.21      10.42
C       1.32      -4.15       9.23
C       2.06       6.92       0.60
C       2.83      -6.49      24.58
C       2.82      -6.60      23.19
C       2.06      -7.58      22.52
C       1.34      -8.48      23.33
C       1.32      -8.37      24.71
C       2.04      -7.69      21.04
C       2.04      -6.60      20.22
C       1.34      -5.81      17.93
C       2.07      -6.71      18.74
C       2.82      -7.70      18.07
C       2.83      -7.80      16.68
C       2.06      -6.92      15.90
C       1.32      -5.92      16.55
C       1.97      15.37       6.61
C       1.97      13.21       9.90
C       1.96       0.88      10.01
C       1.97      -0.89       6.50
C       1.97      -9.11      20.52
C       1.97      -5.18      20.74
O       1.06      -6.24      11.08
O       1.06      -6.47      13.81
O       1.06      19.86      12.24
O       2.98      -5.59      12.11
O       2.98      20.42      11.16
O       2.98      -7.69      13.86
O       1.06       6.47       2.69
O       1.06       8.72       4.26
O       1.06       6.24       5.42
O       2.98       7.69       2.64
O       2.98       5.59       4.39
O       2.98       8.16       5.34
