186

Zn       3.87       7.87       8.72
Zn      -1.99      27.70       9.31
Zn      19.93      29.08      11.47
Zn      18.68      28.02       8.72
Zn      19.93       9.62       0.84
Zn       3.87      23.39      17.20
Zn      18.68      12.50       0.24
Zn      -1.99      12.18       0.84
H      23.20       6.51       5.70
H       0.59      10.98       3.86
H      21.83       7.51       3.86
H       1.96       9.98       5.70
H      21.84      27.67      14.87
H       1.96      24.79      13.79
H      23.21      26.67      16.71
H       0.59      25.80      11.95
H      26.87      18.82      19.01
H       4.03      20.95      15.12
H       4.03      16.92      12.93
H      26.87      14.81      16.81
H      26.87      12.83      15.73
H       4.03      14.95      11.85
H       4.03      10.94       9.65
H      26.87       8.81      13.55
H      -1.33      14.88       2.44
H      18.02      15.32       1.64
H      18.03      19.33       3.84
H      -1.34      18.90       4.64
H      -1.34      20.87       5.72
H      18.03      21.30       4.92
H      18.02      25.32       7.11
H      -1.33      24.88       7.91
H      17.54       8.18       2.45
H      15.80      12.30       1.64
H      11.97      11.09       3.84
H      13.71       6.99       4.64
H      11.82       6.40       5.71
H      10.09      10.50       4.92
H       6.25       9.31       7.11
H       8.00       5.19       7.91
H       6.25      23.97      15.12
H       8.00      25.51      19.01
H      11.83      26.71      16.81
H      10.09      25.17      12.93
H      11.97      25.76      11.85
H      13.71      27.30      15.73
H      17.54      28.50      13.55
H      15.80      26.95       9.65
C       6.62       7.09       7.80
C      22.22      27.39      12.21
C      27.35       9.35      11.31
C      17.17      27.88      11.31
C       1.58       7.59       6.90
C      20.24      25.63       7.80
C       3.55      20.41      17.35
C       1.58      25.08      16.45
C      17.17      10.39       1.76
C      20.24      14.57       1.76
C      22.22       9.90       2.66
C       6.62      24.58      17.35
C       0.76       8.19       5.80
C      23.03       9.30       3.75
C      23.45       7.48       5.29
C       0.34      10.00       4.27
C      22.69       8.04       4.27
C       1.10       9.45       5.29
C      23.03      26.79      13.31
C       0.76      25.67      15.36
C      22.69      27.04      14.65
C       1.10      25.42      14.02
C      23.45      26.48      15.67
C       0.34      25.98      13.00
C      27.35      19.13      16.65
C      27.09      17.92      17.37
C      27.09      16.69      16.69
C      27.35      16.66      15.30
C       3.81      17.85      14.58
C       3.81      19.08      15.24
C      27.35      15.42      14.63
C      27.35      14.34      14.04
C      27.35      13.10      13.36
C      27.09      11.91      14.08
C      27.09      10.68      13.42
C      27.35      10.63      12.01
C       3.81      11.84      11.29
C       3.81      13.06      11.97
C      -3.55      15.85       2.46
C      -2.34      16.36       3.02
C      -2.35      17.59       3.69
C      -3.55      18.32       3.81
C      19.04      17.83       3.25
C      19.03      16.60       2.58
C      -3.55      19.56       4.48
C      20.24      20.64       5.07
C      20.24      21.88       5.75
C      -2.35      22.37       6.30
C      -2.34      23.60       6.98
C      20.24      24.35       7.10
C      19.03      23.84       6.53
C      19.04      22.61       5.87
C      15.95      10.01       2.46
C      15.83       8.70       3.02
C      14.65       8.34       3.69
C      13.59       9.28       3.81
C      13.71      10.57       3.25
C      14.87      10.95       2.58
C      12.41       8.91       4.48
C      11.38       8.58       5.07
C      10.20       8.21       5.75
C      10.09       6.92       6.30
C       8.92       6.54       6.98
C       7.84       7.48       7.10
C       7.97       8.79       6.53
C       9.14       9.14       5.87
C       7.84      24.97      16.65
C       7.97      24.73      15.24
C       9.14      25.10      14.58
C      10.20      25.70      15.30
C      10.09      25.94      16.69
C       8.92      25.57      17.37
C      11.38      26.07      14.63
C      12.41      26.39      14.04
C      13.59      26.76      13.36
C      13.71      26.53      11.97
C      14.87      26.89      11.29
C      15.95      27.50      12.01
C      15.83      27.74      13.42
C      14.65      27.37      14.08
O      20.24      28.84       9.55
O       5.66       7.96       7.90
O      -1.22      27.13      11.01
O      27.10       8.27      11.98
O       6.53       5.90       8.29
O       3.80       9.33      10.04
O      21.23      28.12      12.56
O      18.13      28.44      11.98
O      25.01       6.44       7.32
O      17.27      27.65      10.04
O       2.57       8.27       7.32
O      -2.44      26.07       8.29
O      19.13      26.28       7.90
O      -3.55      11.35       0.00
O      27.10      20.43      18.62
O       2.57      24.35      16.11
O      17.27      11.59       1.26
O       3.80      21.49      16.68
O      18.13       9.53       1.65
O      25.01      25.34      17.65
O      19.13      14.13       1.26
O      -1.22      11.05       2.23
O      -2.44      13.92       1.65
O      21.23       9.22       2.23
O       5.67      24.03      16.68
O       6.53      24.81      18.62
O      26.84      17.87      18.70
O       4.06      20.17      14.49
O       4.06      17.85      13.24
O      26.84      15.57      17.42
O      26.84      11.91      15.42
O       4.06      14.19      11.24
O       4.06      11.88       9.96
O      26.84       9.58      14.17
O      -1.15      15.71       2.95
O      17.84      16.19       2.07
O      17.86      18.51       3.34
O      -1.17      18.03       4.21
O      -1.17      21.69       6.21
O      17.86      22.16       5.34
O      17.84      24.48       6.60
O      -1.15      24.00       7.48
O      16.80       7.76       2.95
O      14.91      12.20       2.07
O      12.70      11.50       3.34
O      14.58       7.09       4.21
O      11.09       5.99       6.21
O       9.21      10.40       5.34
O       7.00       9.73       6.61
O       8.89       5.29       7.48
O       7.00      24.17      14.49
O       8.89      25.83      18.70
O      11.09      26.51      17.42
O       9.21      24.86      13.24
O      12.70      25.95      11.24
O      14.58      27.61      15.42
O      16.80      28.30      14.17
O      14.91      26.64       9.96
