192

Mn       3.64       7.10       5.64
Mn       3.83       4.04      19.75
Mn       8.06       4.04      22.59
Mn       7.87       7.10       8.47
H       9.26       7.40       5.52
H       6.67       3.74      19.63
H       2.44       3.74      22.71
H       5.03       7.40       8.59
H      10.04       7.49       4.08
H       5.88       3.66      18.19
H       1.66       3.66      24.14
H       5.82       7.49      10.03
H       5.21       5.79       3.44
H       2.27       5.36      17.55
H       6.49       5.36      24.79
H       9.43       5.79      10.67
H       7.49       6.80       3.59
H       8.43       4.34      17.70
H       4.21       4.34      24.63
H       3.27       6.80      10.52
H       8.01       5.31       4.40
H       7.92       5.83      18.51
H       3.69       5.83      23.83
H       3.79       5.31       9.72
H       4.95       3.50       0.54
H       2.53       7.64      14.65
H       6.76       7.64      27.68
H       9.17       3.50      13.57
H       5.92       3.66      26.46
H      10.00       7.49      12.35
H       5.78       7.49       1.76
H       1.70       3.66      15.87
H       1.37       4.33      28.14
H       6.11       6.82      14.03
H      10.33       6.82       0.08
H       5.59       4.33      14.19
H       8.86       4.21       2.21
H       7.07       6.94      16.33
H       2.85       6.94      26.01
H       4.63       4.21      11.90
H       1.93       5.16       3.94
H       5.54       5.99      18.05
H       9.77       5.99      24.28
H       6.16       5.16      10.17
H       1.15       2.82       3.90
H       6.33       8.33      18.01
H      10.56       8.33      24.32
H       5.37       2.82      10.21
H       3.58       2.12       7.42
H       3.90       9.02      21.53
H       8.12       9.02      20.80
H       7.80       2.12       6.69
H       4.30       4.48       7.26
H       3.17       6.67      21.37
H       7.40       6.67      20.96
H       8.53       4.48       6.85
H       3.02       9.75       4.10
H       4.46       1.39      18.21
H       8.68       1.39      24.12
H       7.25       9.75      10.01
H       0.37       1.00       4.07
H       7.11      10.14      18.18
H      11.33      10.14      24.16
H       4.59       1.00      10.05
H       3.17       0.16       7.26
H       4.30      10.99      21.38
H       8.53      10.99      20.96
H       7.40       0.16       6.85
H       5.67       8.97       7.18
H       1.80       2.18      21.29
H       6.03       2.18      21.04
H       9.90       8.97       6.93
C       6.82       6.59       5.62
C       9.11       4.56      19.74
C       4.89       4.56      22.60
C       2.59       6.59       8.49
C       7.16       5.99       4.26
C       8.77       5.16      18.37
C       4.55       5.16      23.97
C       2.93       5.99       9.85
C       6.84       3.84       1.50
C       9.08       7.31      15.61
C       4.86       7.31      26.72
C       2.62       3.84      12.61
C       6.01       3.70       0.39
C       9.92       7.45      14.50
C       5.69       7.45      27.83
C       1.78       3.70      13.72
C       6.56       3.79      27.34
C       9.37       7.36      13.22
C       5.15       7.36       0.89
C       2.33       3.79      15.00
C       7.93       4.01      27.16
C       8.00       7.14      13.05
C       3.77       7.14       1.06
C       3.70       4.01      15.17
C       8.75       4.16       0.06
C       7.17       6.98      14.18
C       2.95       6.98      28.16
C       4.53       4.16      14.05
C       8.21       4.09       1.34
C       7.71       7.06      15.45
C       3.49       7.06      26.88
C       3.99       4.09      12.77
C       8.54       4.04      25.79
C       7.39       7.10      11.68
C       3.16       7.10       2.43
C       4.31       4.04      16.54
C       2.27       4.45       4.70
C       5.21       6.70      18.81
C       9.43       6.70      23.53
C       6.49       4.45       9.42
C       1.84       3.13       4.67
C       5.64       8.02      18.79
C       9.86       8.02      23.55
C       6.07       3.13       9.44
C       2.30       2.23       5.65
C       5.18       8.92      19.76
C       9.40       8.92      22.57
C       6.52       2.23       8.46
C       3.19       2.74       6.61
C       4.29       8.41      20.72
C       8.51       8.41      21.61
C       7.42       2.74       7.50
C       3.59       4.07       6.54
C       3.89       7.08      20.65
C       8.11       7.08      21.68
C       7.81       4.07       7.57
C       3.78      10.14       4.78
C       3.70       1.00      18.89
C       7.92       1.00      23.44
C       8.00      10.14       9.33
C       0.88       0.34       4.76
C       6.60      10.81      18.87
C      10.82      10.81      23.46
C       5.10       0.34       9.35
C       1.86       0.82       5.65
C       5.61      10.33      19.76
C       9.84      10.33      22.57
C       6.09       0.82       8.46
C       5.66      11.02       6.54
C       1.81       0.12      20.65
C       6.04       0.12      21.68
C       9.89      11.02       7.57
C       5.25       9.70       6.50
C       2.23       1.45      20.61
C       6.45       1.45      21.72
C       9.47       9.70       7.61
S       6.16       3.73       3.14
S       9.77       7.41      17.26
S       5.54       7.41      25.08
S       1.94       3.73      10.97
N       6.05       5.25       3.69
N       9.87       5.90      17.80
N       5.65       5.90      24.53
N       1.83       5.25      10.42
N       3.13       4.92       5.61
N       4.35       6.22      19.72
N       8.57       6.22      22.61
N       7.35       4.92       8.50
N       4.32       9.25       5.63
N       3.15       1.90      19.74
N       7.38       1.90      22.59
N       8.55       9.25       8.48
O       5.65       6.51       6.08
O       1.83       4.64      20.19
O       6.05       4.64      22.14
O       9.87       6.51       8.03
O       7.79       7.13       6.26
O       8.14       4.02      20.37
O       3.91       4.02      21.96
O       3.56       7.13       7.85
O       4.81       3.23       3.02
O       2.66       7.91      17.13
O       6.89       7.91      25.20
O       9.04       3.23      11.09
O       7.15       3.04       3.96
O       8.78       8.10      18.07
O       4.56       8.10      24.26
O       2.92       3.04      10.15
O       7.72       4.11      24.79
O       8.20       7.04      10.68
O       3.98       7.04       3.43
O       3.50       4.11      17.54
O       1.35       4.00      25.68
O       6.13       7.15      11.57
O      10.35       7.15       2.54
O       5.57       4.00      16.65
O      10.10       7.69       5.07
O       5.82       3.45      19.18
O       1.60       3.45      23.15
O       5.88       7.69       9.04
