59

Zn       5.85       5.07       8.05
Zn       3.04       4.93       8.16
H       7.30       9.42       7.27
H       2.75       0.65       9.21
H       6.73       0.76       5.68
H       6.64       6.22       1.47
H       8.01       4.29      10.00
H       2.38       5.67       1.13
H       7.74       0.86       7.15
H       5.13       8.32       4.18
H       0.74       4.16      10.05
H       8.19       5.23       4.90
H       8.20       6.91       5.49
H       0.94       5.22       4.97
H       0.92       6.87       5.64
H       6.59       5.44      15.14
H       2.32       4.90      14.80
H       2.30       9.20       9.25
C       4.24       7.59       8.18
C       3.60       0.14       8.75
C       4.59       0.92       8.12
C       4.47       5.24       5.49
C       5.65       0.22       7.55
C       6.89       0.35       6.69
C       6.40       9.78       6.76
C       0.29       5.34       7.07
C       0.21       4.52       9.17
C       8.61       4.58       9.14
C       8.69       5.39       7.04
C       5.75       6.13       0.85
C       8.65       5.92       5.62
C       0.44       5.89       5.68
C       4.50       2.41       8.08
C       4.55       5.00      10.74
C       5.62       5.30      15.62
C       4.47       5.16      14.81
C       3.21       4.99      15.43
C       3.35       5.82       0.66
C       4.50       5.91       1.46
C       6.34       9.08       5.42
C       4.56       5.14      13.40
C       4.42       5.74       2.87
C       4.40       5.54       4.07
C       4.59       5.08      12.18
C       5.14       9.86       7.60
C       4.17       9.08       8.20
C       3.09       9.78       8.78
N       0.98       4.90       8.12
N       7.92       5.03       8.06
O       5.40       7.07       8.16
O       5.07       8.82       5.02
O       3.13       6.96       8.16
O       5.63       5.27       6.00
O       3.37       4.99       6.08
O       5.59       3.04       7.88
O       3.35       2.93       8.25
O       5.66       4.93      10.12
O       3.38       5.01      10.22
O       7.32       8.78       4.75
