164

Zn      -1.87      -2.68       8.83
Zn       8.69      12.32       9.23
Zn      11.36      13.42       7.22
Zn      -4.60      -4.08      11.13
H      -1.12      -0.95       6.19
H       6.14      13.55       7.63
H      -5.49       3.91       8.23
H      -5.74       6.23       8.14
H      -4.58       6.48       9.44
H      -6.16       3.94      12.49
H      -4.60       4.41      11.82
H      -7.00       6.12      12.25
H      12.23       3.48      10.90
H      11.61       5.69      10.40
H      -5.36       6.63      11.85
H      -9.53      10.43      10.83
H       5.61      -1.94       7.45
H       9.42      14.64       5.06
H       7.87      -1.71       8.07
H       1.17      14.03       9.57
H       5.71      -3.36       9.58
H      -1.18      14.00       9.47
H       1.54      13.22       7.28
H      -0.76      13.92       5.72
H       8.28      -2.16       6.41
H       6.05      -2.69       5.91
H      -2.92      -5.48      13.41
H      13.72      -1.64      10.39
H       8.68      13.68       2.70
H       7.63      12.93       0.58
H       0.61       1.65      15.31
H       5.16      12.44       4.88
H       4.14      11.64       2.77
H      -3.05      -1.64      15.67
H      -3.37      -6.50      15.68
H       6.83      11.44       6.43
H      -3.20      -7.73      17.83
H       8.50      10.06      11.98
H       2.29       0.84       3.26
H       0.85      -0.17       5.02
H     -10.19       8.85      13.55
H      -4.68      16.26       1.08
H      -6.12      15.24       2.81
H      12.27      -3.39      11.28
H      -7.17      14.24       4.60
H      -0.25      -1.73      11.68
H       0.57      14.77       3.68
H       4.63      10.64       0.81
H       1.26      -2.31       8.82
H      -3.02       2.06       8.03
H      -3.92      -2.46      13.88
H      12.18       5.54       8.74
H      12.52       3.26       9.17
H      -4.13       4.18       9.35
C      -1.06      -2.01       5.95
C       0.98      -3.34       8.64
C      -3.09      -2.42      13.17
C       6.17      14.00       8.61
C      -8.10      10.54       7.91
C      -1.86      -1.75      13.27
C      -8.15       9.88       9.15
C      -5.14      14.72       8.15
C     -10.64      11.53      13.22
C      12.79       3.88      10.04
C      -5.20       4.39       9.18
C      12.13      -4.29       9.22
C      -5.47       5.91       9.15
C      -7.50       8.70       9.56
C      -6.01       3.72      10.33
C       8.90      13.85       5.59
C      12.46       5.36       9.79
C      -6.63       6.26      10.12
C      -6.16       5.94      11.56
C      -5.68       4.46      11.65
C      -7.02       7.64       9.92
C      -5.67       2.31      10.35
C       7.77      13.10       5.21
C      -5.40       1.13      10.19
C       7.74      -2.49       7.31
C       7.67      -4.15       9.19
C       6.16      -4.20       9.04
C      14.72      -1.43      10.04
C      -3.79      14.76       7.79
C       8.37      -3.79       7.84
C       6.24      -2.72       6.99
C      -1.16      15.03       7.55
C      -0.42      13.93       6.76
C      -4.96      -0.18       9.92
C       1.11      14.15       6.88
C      -2.61      14.88       7.50
C       9.79      -3.75       8.16
C      10.87      -3.96       8.68
C      -1.48      -0.89      14.37
C       7.58      12.22       6.30
C      -2.25      -0.91      15.56
C      -2.07      -0.04      16.62
C      -1.00       0.91      16.55
C      -0.20       0.93      15.37
C      -1.22      -2.05      12.04
C      -0.44       0.06      14.34
C       7.10      12.84       1.53
C       7.67      13.25       2.72
C       5.86      12.17       1.57
C       7.04      13.02       3.96
C       5.72      12.52       3.95
C      -3.70      -0.53       9.40
C       5.13      12.09       2.77
C       0.67      -2.08       4.03
C      -5.79      16.28       2.93
C      -9.15      10.61       9.83
C      -4.98      16.83       1.95
C       2.33      -0.94       2.05
C       1.96      -0.20       3.19
C       1.14      -0.76       4.16
C      -3.18      -8.27      16.88
C      -3.28      -7.59      15.68
C     -10.08       9.44      16.92
C      12.68      -4.00      10.48
C     -10.30      10.83      14.45
C     -10.17       9.43      14.47
C      -6.06      13.65       8.13
C     -10.05       8.77      15.68
C      -7.53      15.11       5.13
C      -7.19      16.47       4.97
C      -3.47      -6.25      12.87
C       8.93      11.05      12.13
S       1.91      14.22       5.24
S      -3.34      -0.17      17.91
S      -2.27       0.42       9.16
N      -1.79      -2.90       6.65
N       5.35      11.43       0.51
N       2.92      -0.21       1.00
N       7.21      13.81       9.45
N     -10.32       8.67      18.06
N       9.33      13.45       6.80
N      15.54      -2.42       9.63
N       8.52      12.44       7.24
N      -3.62      -1.86       9.21
N      13.87      -4.62      10.61
N      -8.43      14.98       6.12
N      10.66      11.59       9.05
N      -2.00      -2.82      11.28
N      -7.28      14.01       8.53
N      -4.02      -5.97      11.67
N       8.74      12.02      11.22
N      -0.27      -3.78       8.87
N      -3.17      -3.04      11.99
N      11.33      11.54       7.84
N      -0.56       1.83      17.49
O       3.21      14.81       5.36
O       1.73      12.92       4.62
O       0.98      15.27       4.42
O      -4.09       1.06      17.76
O      -4.03      -1.42      17.67
O       3.91       9.40       1.05
O      -2.06       1.35      10.24
O      -1.22      -0.53       8.79
O      -2.52       1.25       7.81
F      -5.81      12.40       7.72
F      -7.33      10.25       6.85
F       8.00      -3.16      10.14
F      -0.72      12.66       7.29
F       0.35       0.13      13.23
F      -9.96       7.41      15.66
