50

Al       5.83       5.90       8.41
Al       2.51       5.93       8.44
H       4.17       6.63       6.84
H       7.51       4.34       9.09
H       8.88       5.51      12.36
H       8.64       5.67      14.85
H       5.91       7.46      15.05
H       5.74       6.46       1.65
H       2.95       4.58       2.03
H       2.76       4.77       4.53
H       9.44      10.06       9.29
H       5.54       9.84       7.49
H       6.06       1.92       9.20
C       7.52       8.31       8.46
C       7.45       5.77       5.99
C       4.12       3.47       8.35
C       4.21       6.20      10.81
C       4.18       6.39      12.29
C       3.03       5.93      12.97
C       9.54       6.02      14.34
C       3.94       6.58      15.09
C       5.10       7.03      14.45
C       5.21       6.97      13.06
C       6.54       6.09       2.28
C       7.68       5.52       1.70
C       2.07       5.03       2.50
C       1.97       5.14       3.88
C       7.49       5.72       4.50
C       6.45       6.21       3.67
C       4.12       1.98       8.29
C       7.48       9.81       8.41
C       3.06       1.19       7.78
C       8.56      10.57       8.88
C       6.36      10.44       7.87
C       5.24       1.31       8.83
N       3.94       6.70      16.50
N       7.67       5.46       0.29
Cl       6.63       7.67      12.37
Cl       5.07       7.05       4.29
Cl       1.68       1.86       6.99
O       6.42       7.71       8.27
O       8.57       5.95       6.57
O       3.00       4.06       8.30
O       5.34       6.21      10.22
O       5.26       4.04       8.49
O       3.09       5.98      10.25
O       8.65       7.76       8.65
O       6.33       5.62       6.56
O       4.17       6.44       7.79
O       7.49       5.30       8.99
