224

Zn       7.51       8.98      15.55
Zn      26.96      10.78      18.18
Zn       8.95      11.91      15.66
Zn      25.40      11.72      15.55
Zn      18.30       7.29       8.80
Zn      16.78       4.48       8.66
Zn      18.56       5.43       6.15
Zn      19.99       4.55       8.87
Zn      16.11      16.32      22.38
Zn      17.63      15.38      25.01
Zn      15.84      18.07      25.07
Zn      14.44      15.19      24.88
Zn      17.60       4.94      31.91
Zn      14.39       4.86      31.75
Zn      24.68      19.82      31.75
Zn      18.33      17.62       1.96
H      23.08       5.87      11.29
H      20.62       9.38      11.59
H       5.11       6.91      12.85
H      11.34      13.44      22.71
H      13.80      14.61      19.40
H       9.69      12.41      21.11
H      13.26       5.65      11.08
H      19.12      14.68      19.46
H      16.21      19.73      19.57
H      29.05      18.54      11.21
H      12.24       1.39       4.96
H      14.31       3.06       1.59
H      13.91       2.45       6.50
H      18.36      14.19       4.81
H       4.71       2.75       1.34
H      22.15      17.63      29.29
H      11.49       3.68      29.01
H      20.49      16.61      27.70
H      13.92       8.54      29.26
H      21.10       3.76      29.40
H      22.62      11.59      11.75
H      11.86      15.36      17.33
H      17.14       2.87       2.36
H      17.29      20.63      28.89
C       7.39       7.83      18.27
C       9.79      12.35      18.45
C      10.09       9.55      14.27
C      26.94      13.87      14.23
C      24.65       9.33      13.99
C      24.35      12.13      18.25
C      15.71       6.78      10.15
C      16.04       3.91       5.87
C      18.38       8.38       6.06
C      21.20       4.10       6.21
C      20.78       6.96      10.39
C      18.35       2.40      10.06
C      18.67      14.87      22.30
C      18.37      17.76      26.58
C      16.05      19.27      22.38
C      13.22      17.48      26.30
C      13.63      14.73      22.08
C      16.10      13.26      26.37
C      16.00       6.97      30.47
C      22.19      20.18      30.19
C      27.30      20.32      30.47
C      18.42      14.67       1.99
C      12.21       1.51       2.25
C       7.11       1.32       1.99
C      23.62       8.72      13.09
C      21.76       7.57      11.34
C      22.45       9.43      12.75
C      22.92       6.87      11.70
C      21.53       8.85      11.86
C      23.84       7.44      12.57
C      10.82      12.93      19.37
C      12.65      14.10      21.14
C      11.99      13.55      18.87
C      11.51      13.46      21.64
C      12.89      14.13      19.76
C      10.60      12.89      20.75
C      12.39       9.67      13.09
C      13.47       6.68      11.36
C      11.21       9.04      13.48
C      14.63       7.33      10.97
C      12.65       7.53      12.13
C      13.21       8.81      12.31
C      23.10      12.68      20.45
C      19.88      14.28      20.12
C      23.24      12.64      19.07
C      19.77      14.31      21.50
C      21.09      13.67      19.73
C      21.88      13.26      20.83
C       7.33       6.50      20.49
C       7.53       2.90      20.21
C       7.41       6.63      19.10
C       7.45       2.80      21.59
C       7.49       4.25      19.81
C       7.38       5.15      20.89
C      25.81      15.76      12.85
C      28.03      18.20      11.37
C      26.90      15.08      13.39
C      26.93      18.87      10.85
C      27.62      17.06      12.09
C      26.22      16.89      12.11
C      15.04       3.34       4.91
C      13.19       2.15       3.18
C      15.16       3.53       3.52
C      13.06       1.98       4.57
C      14.24       2.92       2.67
C      13.98       2.57       5.42
C      18.39       9.72       3.84
C      18.38      13.32       4.15
C      18.37       9.59       5.23
C      18.40      13.43       2.78
C      18.37      11.97       4.55
C      18.40      11.08       3.45
C       3.82       2.87       5.83
C       4.91       2.55       2.39
C       2.68       3.56       5.42
C       6.03       1.86       2.82
C       4.10       2.92       3.49
C       4.63       2.51       4.73
C      19.36      18.42      27.48
C      21.21      19.56      29.25
C      19.24      19.78      27.83
C      21.33      18.22      28.88
C      20.16      20.34      28.73
C      20.41      17.65      28.00
C      17.20      11.35      27.74
C      14.95       8.88      29.13
C      16.13      12.04      27.19
C      16.03       8.21      29.67
C      15.37      10.03      28.43
C      16.77      10.20      28.45
C      30.60      17.36      27.58
C      29.51      20.41      29.19
C      31.74      18.00      27.10
C      28.38      19.76      29.65
C      30.32      19.54      28.43
C      29.79      18.24      28.33
C      22.06      10.74      13.39
C      12.38      13.51      17.41
C      16.18       4.45       2.90
C      18.23      20.71      27.21
S      11.12       7.39      12.90
S      14.73       8.97      11.54
S      21.86      13.31      18.24
S      21.12      13.61      22.34
S       7.54       5.09      18.30
S       7.34       4.34      22.41
S      28.42      15.81      12.97
S      25.41      18.12      11.24
S      18.35      11.12       6.05
S      18.42      11.90       1.95
S       2.60       3.75       3.69
S       6.12       1.67       4.55
S      14.60      11.28      27.53
S      17.57       8.95      29.33
S      31.82      19.68      27.58
S      28.30      18.09      29.17
Cl      12.86      11.26      13.47
Cl      24.22      12.10      21.61
Cl       7.19       7.77      21.62
Cl      24.17      15.33      13.02
Cl      18.40       8.45       2.70
Cl       4.26       2.49       7.43
Cl      18.85      11.76      27.62
Cl      30.17      15.73      27.33
O       7.39      10.83      16.22
O       7.53       7.65      17.01
O       8.94      11.56      18.98
O      10.18      10.75      14.69
O       7.23       8.95      18.86
O       9.12       8.73      14.46
O       9.84      12.71      17.23
O       8.47      13.42      14.51
O      24.57      10.58      14.18
O      25.82      13.39      14.61
O      25.54       8.55      14.47
O      25.40      11.75      18.86
O      24.15      12.14      16.98
O      18.41       5.44       8.12
O      16.68       7.58       9.86
O      15.70       3.97       7.09
O      18.42       7.25       5.47
O      15.60       5.56       9.79
O      18.35       8.58       7.33
O      17.16       4.28       5.37
O      20.27       4.67       5.54
O      20.99       5.75      10.06
O      21.25       3.97       7.48
O      19.81       7.70      10.00
O      17.22       2.83       9.65
O      19.49       2.94       9.87
O      16.00      16.24      24.34
O      17.72      15.44      21.66
O      18.71      16.65      26.06
O      15.96      19.40      23.65
O      18.78      14.74      23.57
O      16.12      18.17      21.73
O      17.25      18.36      26.43
O      14.14      18.33      26.01
O      13.43      14.55      23.32
O      13.19      16.25      25.97
O      14.59      15.39      21.55
O      17.21      13.85      26.16
O      14.95      13.62      25.95
O      15.99       3.96      32.46
O      17.14       6.52      30.84
O      21.97      21.38      30.55
O      26.33      19.53      30.74
O      14.86       6.46      30.71
O      18.82       3.83      30.84
O      23.17      19.44      30.56
O      18.44      14.53       0.71
O      11.23       0.88       2.79
O      18.41      15.77       2.63
O      12.44       1.63       1.00
O       7.00       1.47       0.73
O       8.07       0.74       2.62
O      22.17      11.84      12.58
O      21.58      10.84      14.49
O      12.29      14.70      16.75
O      12.85      12.53      16.87
O      17.19       3.84       2.21
O      16.08       5.66       2.91
O       8.62       3.42      28.05
O       9.72       3.45      26.09
