78

Zn      -0.37       5.33       7.06
Zn       6.48       5.28       7.33
H       4.58       4.72      12.89
H       1.92       7.18       1.41
H       0.64       5.40      11.13
H       5.73       5.97       3.25
H       6.21       6.31      11.66
H       0.01       4.56       2.76
H       9.47       4.59       0.29
H      -3.10       6.84      14.06
H       2.42       5.25      11.88
H       4.10       6.74       2.42
H       4.20       4.69       9.27
H       1.90       5.98       5.18
H       1.67       4.63       9.10
H       4.45       5.91       5.31
H       4.93       9.14       5.26
H      -0.35       3.12       5.06
H       6.70       3.26       9.65
H       0.18       7.53       8.77
C       7.83       7.82       7.23
C      -1.73       2.81       7.37
C       2.52       5.31      12.96
C       3.96       6.55       1.35
C       3.74       5.02      13.52
C       2.74       6.81       0.80
C       6.67      10.05       7.59
C      -0.60       0.59       6.97
C       6.86       0.63       7.85
C      -0.66      10.00       7.17
C      -1.72       1.31       7.40
C       7.85       9.32       7.33
C       3.68       4.96       8.36
C       2.42       5.67       6.08
C       2.30       4.95       8.27
C       3.81       5.64       6.16
C       7.83       5.22       4.62
C      -1.62       5.54       9.82
C       7.72       5.27       3.14
C      -1.44       5.81      11.27
C       8.65       4.90       0.94
C      -2.28       6.49      13.42
C       8.80       4.88       2.31
C      -2.52       6.20      12.09
C       6.53       5.69       2.57
C      -0.16       5.70      11.80
C       6.33       5.71       1.18
C       0.10       5.91      13.17
C       7.42       5.30       0.35
C      -1.00       6.34      13.99
C       5.06       6.07       0.57
C       1.40       5.69      13.75
S       4.97       9.41       7.34
S       0.70       1.35       5.89
S       5.67       1.43       9.00
S       0.97       9.29       7.64
N       1.68       5.32       7.14
N       4.43       5.30       7.29
O      -0.90       7.27       6.66
O       6.90       3.34       6.99
O       6.84       7.22       7.73
O      -0.68       3.41       7.71
O      -0.79       4.78       5.13
O       7.03       4.98       9.40
O       6.84       5.60       5.30
O      -0.65       5.89       9.06
O       4.50       8.52       8.35
O       4.24      10.58       6.93
O       5.20       8.54       5.99
O       1.58       2.28       6.54
O       1.20       0.24       5.14
O      -0.27       2.13       4.90
O       4.71       2.31       8.39
O       5.25       0.34       9.84
O       6.70       2.28       9.87
O       1.59       8.44       6.67
O       1.64      10.42       8.19
O       0.53       8.45       8.93
