102

Zn      11.47       7.06      11.35
Zn       8.71       6.66      11.76
H      10.87       7.50       4.42
H       7.72       5.84       7.89
H      11.52       7.54       6.84
H      13.01      12.11      11.09
H      12.81       9.27      10.00
H       4.89       9.16       9.13
H      15.15       9.85       9.28
H       7.43       4.56      13.14
H      13.32       7.04      17.74
H       9.12       6.81      18.67
H      11.35      11.12      11.36
H      12.73       2.79      11.38
H       8.07       3.75      10.54
H      14.12       6.12      12.32
H      12.77       7.00      15.29
H       8.59       6.78      16.21
H       7.06       5.80       5.47
H       7.47       3.27       1.45
C      10.53       4.31      11.44
C      11.88       8.24      20.26
C      12.28       6.98      17.40
C      10.36       6.88      14.14
C      11.98       6.96      16.04
C      10.65       6.89      15.61
C       9.62       6.83      16.56
C       9.92       6.86      17.92
C      11.25       6.93      18.33
C       8.03       6.18       5.78
C       8.40       6.20       7.12
C       7.38       4.20       0.88
C       9.65       6.69       7.50
C      10.54       7.16       6.53
C      10.19       7.13       5.18
C       9.45       9.38      11.44
C       8.93       6.65       4.82
C       7.98      12.87      10.76
C       9.27      10.85      11.19
C      11.82       2.20      11.25
C      11.88       0.81      11.17
C      12.89      13.19      11.09
C      12.20       4.64      22.60
C       9.48       0.64      11.00
C       9.40       2.06      10.97
C      10.40      13.03      10.96
C       6.99       0.50      10.75
C      10.00       6.75       8.96
C       7.01       1.92      10.57
C       8.13       2.67      10.69
C      10.41      11.64      11.17
C       8.03      11.49      10.97
C      10.59       2.83      11.18
C      12.09       5.80      21.82
C      14.96       9.02       9.96
C       6.53       5.05      12.77
C       5.27       4.69      13.26
C       4.14       5.37      12.82
C       4.24       6.39      11.85
C       8.41       7.88       2.78
C       5.57       6.64      11.37
C      15.77       7.17      11.34
C      16.04       8.23      10.41
C       4.70       8.41       9.90
C      12.44       7.04      22.42
C       5.71       7.61      10.31
C      14.42       6.93      11.66
C      13.68       8.71      10.35
C       8.23       5.38       2.86
C       7.73       5.40       1.46
C       7.62       6.61       0.73
C       7.97       7.84       1.36
C      12.35       8.25      21.68
C      12.71       9.44      22.30
C       7.88       9.00       0.60
C      11.63       5.74      20.41
N       8.53       6.63       3.43
N      11.58       6.98      19.73
N      13.42       7.66      11.17
N       6.67       6.01      11.86
O      11.55       5.01      11.12
O      11.13       7.24       9.30
O       9.12       6.31       9.77
O       8.66       8.93       3.37
O       8.38       4.34       3.48
O      11.33       4.70      19.83
O      11.77       9.25      19.58
O       9.47       4.74      12.00
O      11.38       6.87      13.37
O       9.14       6.89      13.77
O      10.65       8.97      11.48
O       8.41       8.66      11.58
F       6.86      10.82      10.96
F       8.20      10.21       1.08
F       5.83       2.56      10.28
F       4.61       0.25      10.56
F      15.24      13.36      11.22
F      11.88       3.44      22.10
F      15.61       5.02      13.36
F       5.15       3.71      14.17
F       6.89       7.69       9.69
F      12.67      10.62      21.67
