50

Zn       2.12       4.73       7.44
Zn       4.52       2.62       7.43
Zn       4.53       5.10       5.37
Zn       2.45       2.68       4.96
H       5.08       5.89       1.34
H       5.09      -1.50       7.48
H      -2.05       4.69       7.54
H       3.76      -0.49      12.12
H       3.57      -2.47      10.64
H       0.48       8.44       8.64
H       0.76      -0.35       8.15
H       0.95       1.63       9.64
H       3.74       3.18       0.69
H       8.92       2.86       5.05
H       1.61       9.13       5.03
C       6.98       4.04       6.62
C       3.68       0.19       5.99
C      -0.18       3.55       6.01
C       3.84       4.00       2.72
C       3.09       3.38       9.88
C       2.82       3.13      11.34
C       2.51       1.89      11.85
C       3.08       7.37       6.58
C       4.12       4.02       1.27
C       4.78       5.06       0.70
C      -1.65       3.46       5.87
C       3.79      -1.27       5.84
C       2.38       0.71      10.97
C       3.10      -0.46      11.25
C       3.00      -1.57      10.42
C       2.17      -1.53       9.30
C       1.43      -0.38       9.02
C       1.54       0.74       9.85
C       2.83       4.30      12.14
C       8.47       4.10       6.72
C       2.94       8.85       6.67
N       5.42       8.58       0.20
O       3.41       3.78       6.30
O       4.43       0.76       6.86
O       4.00       6.94       5.82
O       6.43       4.87       5.83
O       2.83       0.77       5.23
O       0.51       2.93       5.13
O       4.40       4.91       3.44
O       3.99       2.67       9.33
O       2.38       4.29       9.34
O       3.06       3.08       3.13
O       6.41       3.17       7.36
O       2.28       6.69       7.30
O       0.28       4.24       6.99
