252

Al      -1.86       8.48      20.14
Al       1.34       8.25      20.15
Al      -0.24       5.71      20.15
Al       4.51       2.54       6.69
Al       7.70       2.82       6.72
Al       6.08       5.34       6.71
H       3.89       7.11       3.47
H      -0.86       4.56      23.84
H       3.96       6.94      17.08
H      -1.79       9.34      23.86
H       4.00       2.88       2.82
H      -3.81       7.34       9.71
H       8.43       1.90       2.95
H       1.90       4.06       9.85
H       6.77       6.37       2.96
H       1.88      10.51       9.78
H      -2.15       8.27      16.20
H       8.94       3.09      10.28
H       2.63       3.83      23.15
H       1.91       8.89      16.35
H       8.25       6.84      23.25
H       0.42       4.64      16.42
H       8.16       0.54      23.20
H       3.84       1.95       0.51
H      -2.95       8.84      11.51
H       9.30       2.24       0.63
H       0.28       3.79      11.73
H       6.11       7.02       0.67
H      -1.56      10.77       3.59
H       2.75       9.06      11.65
H      -2.36       9.18      13.88
H       3.40       2.32      24.99
H       2.76       8.50      14.05
H       6.63       7.14      25.13
H      -0.19       3.90      14.14
H       9.18       1.85      25.08
H       3.04       8.84       2.57
H       5.56       8.83       2.43
H       4.79      10.44       2.56
H       5.46       6.37      10.40
H       5.33       9.84       0.98
H       9.16       1.75      11.50
H       4.24      11.00      11.96
H      11.15       0.78      13.45
H      11.68       1.40      11.86
H      -2.58       9.17       2.71
H       2.45       0.30       2.53
H      -4.85       9.82       2.74
H      -4.67      10.53       1.13
H       6.61       7.05      11.69
H      10.23       3.97       3.63
H       5.66       9.37      11.99
H       7.41       9.18      12.27
H       6.29       9.24      13.65
H      -0.98       3.46       2.89
H       0.79       2.14       2.73
H       1.16       2.72       1.08
H      -0.06       1.45       1.33
H       3.40       2.52      11.75
H       1.24       1.62      11.62
H       1.64       0.46      12.90
H       4.50       1.59      10.31
H       2.36       0.27      11.27
H      10.72       2.52      16.00
H       9.77       0.34      15.89
H       9.01       0.77      14.33
H       8.42       1.51      15.84
H       3.22      10.02      26.63
H       5.36       9.88      25.33
H       4.06      10.82      24.55
H       4.39       9.16      24.02
H       2.70       2.03      14.54
H      10.37       4.06      16.89
H       2.85       2.71      16.86
H       4.12       3.45      15.84
H       4.50       2.08      16.90
H       0.54       4.20      25.43
H      -0.49       1.49      25.97
H       0.82       1.96      24.86
H      -0.88       2.33      24.45
H       5.26       7.83      16.25
H       7.55       8.15      16.14
H       7.60       7.51      14.48
H       2.63       8.09      23.76
H       7.33       6.41      15.84
H      -3.67       8.74      26.73
H      -4.76      10.61      25.55
H      -4.74       9.12      24.56
H      -3.55      10.40      24.26
H       4.64       0.11      16.95
H      -3.56       9.89      20.90
H       2.55       1.58       5.86
C      -0.02       9.81      22.04
C       6.57       1.27       4.79
C       0.98       4.28      12.41
C       7.03       6.59       0.27
C       2.01       9.50      12.32
C      -2.54       8.18      13.50
C       3.45       3.17      25.67
C       2.01       9.17      13.64
C       7.34       6.67      25.81
C       0.71       4.35      13.74
C       8.44       1.42      25.76
C       4.87       9.54       1.94
C       8.29       4.89       8.55
C      10.83       0.95      12.42
C      -4.15      10.34       2.08
C       6.42       8.88      12.62
C       0.36       2.38       1.74
C       2.05       1.00      12.04
C       9.32       1.16      15.31
C       4.34       9.82      24.90
C       3.73       2.50      16.25
C      -0.15       2.27      25.28
C       7.12       7.42      15.46
C       4.22       4.74       4.71
C      -4.10       9.87      25.05
C       3.37       5.61      26.00
C      -2.66       5.75      13.91
C       6.38       0.13      26.11
C       2.79       5.62      14.13
C       9.44       5.42      26.15
C       0.03      10.60      14.04
C      -3.02       5.56      12.55
C       1.79       6.03      18.28
C       3.54       5.38       0.52
C       0.01      10.89      12.65
C       9.12       5.33       0.67
C       3.10       5.50      12.75
C       6.44       0.32       0.63
C       3.41       8.07      26.36
C      10.04       3.29      14.27
C      -2.10       9.91      26.49
C       4.88       6.94      14.47
C      -1.17       4.11      26.53
C      -2.16       6.02      22.04
C       4.34       0.99      14.37
C       9.71       3.09      12.92
C       3.48       7.84       0.86
C       4.26       1.17      13.00
C      -1.47       4.01       1.02
C       5.18       6.82      13.11
C      -1.99      10.04       0.98
C       2.84       7.09      24.15
C      -2.35       4.87      16.16
C      -1.03      10.01      24.25
C       0.16       9.72      18.22
C       3.34       6.41      16.36
C      -1.78       4.97      24.27
C      -0.91      10.81      16.27
C       9.09       4.08      10.72
C       3.80       6.28       2.77
C       5.30       1.00      10.76
C       9.66       4.55       2.91
C       4.57       5.93      10.86
C       5.55       0.07       2.88
C       3.93       4.98       3.27
C       2.00       6.26      21.99
C       8.84       5.18       9.90
C       6.61       0.83       3.38
C       3.73       5.18      10.02
C       8.52       5.19       3.41
C       6.38       0.63       9.95
C      -2.24       6.17      16.66
C       2.59       5.99      23.33
C       0.14      10.05      16.78
C      -2.61       5.72      23.43
C       2.18       5.80      16.87
C      -2.05       6.38      18.12
C       0.01      10.40      23.41
C       3.24       6.93      25.48
C      -2.55       4.63      14.79
C      -1.05      10.38      25.60
C       3.68       6.33      15.00
C      -2.06       4.82      25.64
C       5.39       0.15      14.92
C       9.47       4.23      12.06
C       3.58       6.51       1.40
C       5.28       0.67      12.12
C       6.37       1.22       8.59
C      10.01       4.63       1.55
C       4.30       6.08      12.23
C      -0.88      10.78       1.52
C       2.80       4.69      23.81
C      -2.26       7.27      15.79
C       7.37       0.23      23.87
C       1.33       5.09      16.02
C       8.89       6.27      23.92
C       1.12       9.51      15.93
C      -3.64       6.48      10.37
C       8.12       4.98       4.83
C       3.88       3.88       2.41
C       1.07      10.83      10.44
C       7.67       5.90       2.56
C       2.54       4.63      10.52
C       7.62       1.30       2.53
C       3.21       4.48      25.13
C      -2.46       7.08      14.42
C       7.39       0.61      25.22
C       1.61       5.01      14.65
C       8.54       6.11      25.27
C       4.17       4.91       8.63
C       1.05       9.74      14.55
C      -3.18       6.68      11.68
C       3.70       4.06       1.03
C       1.03      10.40      11.78
C       7.94       5.95       1.18
C       2.20       4.82      11.87
C       7.53       1.08       1.15
C       3.67       2.95       0.12
C      -2.88       7.99      12.19
C       8.49       1.62       0.23
N       3.53       9.00       1.69
N       0.03       3.53      26.00
N       5.68       7.68      15.34
N      -3.18       9.21      25.97
N       9.64       1.80      12.39
N      -2.99       9.48       1.83
N       6.32       7.43      12.58
N      -0.65       3.40       1.94
N       3.14       1.88      12.49
N      10.31       2.22      15.12
N       3.34       9.36      25.86
N       3.35       1.56      15.18
O      -2.54       7.09      21.50
O       3.96       3.58       5.16
O       7.49       1.45       8.00
O       7.27       5.80       5.33
O      -1.16       9.46      21.63
O       2.23       7.06      18.88
O      -1.33       5.17      21.51
O      -0.93       9.72      18.86
O       2.30       7.41      21.48
O      -1.55       5.42      18.82
O       5.23       1.53       8.13
O       1.31       9.40      18.72
O       8.60       3.96       5.44
O       4.96       5.79       8.09
O       5.44       1.36       5.35
O       8.60       3.74       8.06
O       4.76       5.68       5.40
O      -0.23       7.46      20.16
O       6.12       3.58       6.71
O       1.21       5.42      21.45
O      -2.36       7.52      18.57
O       1.08       9.64      21.40
O       0.95       5.20      18.80
O       3.81       3.83       8.08
O       7.70       1.61       5.34
O       7.49       5.71       7.99
O      -3.39       9.34      20.12
O       3.03       1.59       6.70
