202

Zn       3.97       7.85       8.81
Zn      -2.05      27.70       9.30
Zn      19.91      29.11      11.52
Zn      18.70      27.98       8.81
Zn      19.91       9.62       0.80
Zn       3.97      23.30      17.31
Zn      18.70      12.52       0.30
Zn      -2.05      12.25       0.80
H      27.06      17.93      18.52
H       4.04      19.95      14.84
H      27.06       9.70      13.99
H       4.04      11.72      10.31
H      -1.51      15.79       2.92
H      18.16      16.21       2.16
H      -1.51      24.02       7.45
H      18.16      24.44       6.69
H      16.70       8.04       2.92
H      15.03      11.92       2.16
H       8.85       5.55       7.45
H       7.18       9.43       6.69
H       7.18      24.25      14.84
H       8.85      25.67      18.52
H      15.03      26.73      10.31
H      16.70      28.17      13.99
H       3.38      18.43      12.67
H       4.11      16.81      12.78
H       5.11      18.26      12.98
H      27.72      15.28      18.39
H      26.99      14.51      16.97
H      25.99      15.46      18.08
H       5.11      14.20      10.75
H       4.10      15.15      11.86
H       3.38      14.37      10.43
H      25.99      11.40      15.85
H      27.00      12.84      16.05
H      27.72      11.22      16.16
H      17.35      18.81       2.37
H      17.87      19.52       3.92
H      17.00      17.97       3.89
H      -0.70      17.36       5.01
H      -1.22      19.04       4.77
H      -0.34      18.19       3.49
H      17.00      22.03       6.12
H      17.87      21.19       4.82
H      17.35      22.87       4.61
H      -0.35      22.25       5.72
H      -1.22      20.70       5.70
H      -0.70      21.42       7.24
H      12.99      12.49       3.89
H      11.78      11.19       3.91
H      12.30      11.91       2.37
H      14.75       6.20       3.49
H      13.69       6.78       4.79
H      15.45       6.79       5.00
H       8.43      10.67       4.60
H      10.19      10.69       4.83
H       9.12      11.27       6.12
H      11.58       5.57       7.24
H      12.09       6.27       5.69
H      10.88       4.97       5.72
H      10.89      27.45      18.08
H      12.10      26.76      16.97
H      11.57      25.84      18.40
H       9.12      23.74      12.98
H      10.19      25.14      12.77
H       8.43      25.33      12.67
H      15.44      27.07      16.16
H      13.68      27.28      16.05
H      14.76      28.67      15.85
H      12.30      26.57      10.44
H      11.78      25.64      11.86
H      12.99      24.97      10.74
C       6.65       7.06       7.86
C      22.24      27.40      12.23
C      27.49       9.28      11.36
C      17.23      27.88      11.36
C       1.64       7.54       6.98
C      20.26      25.66       7.86
C      27.49      20.37      17.46
C      25.51      25.01      16.59
C      17.23      10.41       1.75
C      -3.61      14.57       1.75
C      22.24       9.93       2.63
C       6.65      24.53      17.46
C       0.80       8.15       5.87
C      23.08       9.32       3.74
C      23.55       7.47       5.32
C       0.32      10.00       4.29
C      22.77       8.04       4.29
C       1.10       9.43       5.32
C      23.08      26.79      13.35
C      24.67      25.62      15.48
C      22.77      27.01      14.72
C       1.10      25.40      14.11
C      23.55      26.44      15.76
C       0.32      25.97      13.07
C      27.49      19.07      16.75
C      27.24      17.88      17.44
C      27.24      16.65      16.80
C      27.49      16.61      15.39
C       3.86      17.81      14.68
C       3.86      19.02      15.37
C      27.49      15.36      14.71
C      27.49      14.29      14.12
C      27.49      13.05      13.43
C      27.24      11.84      14.15
C      27.25      10.63      13.46
C      27.49      10.58      12.08
C       3.85      11.77      11.38
C       3.86      13.00      12.03
C      -3.61      15.87       2.47
C      -2.43      16.37       3.02
C      -2.40      17.59       3.70
C      -3.61      18.33       3.82
C      19.05      17.83       3.26
C      19.08      16.61       2.60
C      20.26      19.58       4.51
C      20.26      20.65       5.10
C      20.26      21.89       5.78
C      -2.40      22.40       6.35
C      -2.43      23.62       7.01
C      20.26      24.35       7.14
C      19.08      23.86       6.58
C      19.05      22.64       5.91
C      15.98      10.02       2.47
C      15.86       8.74       3.03
C      14.71       8.35       3.70
C      13.63       9.27       3.83
C      13.75      10.58       3.26
C      14.92      10.92       2.60
C      12.45       8.90       4.51
C      11.43       8.57       5.10
C      10.24       8.20       5.78
C      10.13       6.89       6.35
C       8.95       6.55       7.01
C       7.89       7.45       7.14
C       8.01       8.73       6.58
C       9.17       9.12       5.91
C       7.89      24.92      16.75
C       8.01      24.71      15.37
C       9.16      25.07      14.68
C      10.24      25.67      15.39
C      10.13      25.89      16.80
C       8.95      25.51      17.44
C      11.43      26.04      14.71
C      12.45      26.37      14.12
C      13.63      26.74      13.43
C      13.75      26.52      12.03
C      14.92      26.90      11.38
C      15.98      27.49      12.08
C      15.86      27.71      13.46
C      14.71      27.35      14.15
C       4.13      17.82      13.20
C      26.97      15.40      17.60
C       4.12      14.25      11.23
C      26.97      11.83      15.63
C      17.75      18.58       3.37
C      -1.10      18.08       4.28
C      17.75      22.15       5.33
C      -1.10      21.65       6.24
C      12.64      11.59       3.37
C      14.64       6.96       4.28
C       9.24      10.51       5.33
C      11.23       5.88       6.24
C      11.23      26.52      17.60
C       9.24      24.81      13.20
C      14.64      27.60      15.63
C      12.64      25.89      11.23
Cl      23.05       5.92       5.87
Cl       0.82      11.55       3.74
Cl      21.44       7.10       3.74
Cl       2.43      10.37       5.87
Cl      21.44      27.98      15.22
Cl       2.43      24.42      13.60
Cl      23.05      26.81      17.36
Cl       0.82      25.60      11.47
O      20.26      28.85       9.61
O       5.73       7.94       7.95
O      -1.30      27.15      11.04
O      27.24       8.23      12.06
O       6.60       5.86       8.32
O       3.86       9.30      10.11
O      21.25      28.12      12.57
O      18.15      28.44      12.06
O      25.17       6.39       7.41
O      17.28      27.64      10.11
O       2.62       8.21       7.41
O      -2.49      26.07       8.32
O      19.14      26.27       7.95
O       3.61      23.56      19.22
O      27.24      20.35      18.72
O       2.63      24.28      16.25
O      17.28      11.60       1.29
O       3.86      21.42      16.77
O      18.15       9.53       1.66
O      25.17      25.25      17.79
O      19.14      14.16       1.29
O      -1.30      11.08       2.20
O      -2.49      13.96       1.66
O      21.25       9.26       2.20
O       5.73      23.97      16.77
O       6.60      24.77      18.72
