186

Al       7.83       5.04      13.97
Al       9.62       7.70      13.87
Al      11.03       5.06      13.92
Al      17.42      10.46       0.50
Al      14.21      10.39       0.48
Al      15.67       7.78       0.51
H      11.48      10.02      21.75
H      12.22      10.04       3.99
H      13.41      10.24      19.69
H      11.22       9.18      10.62
H      11.39      10.90       6.15
H      11.08      10.62       8.59
H      14.07       6.16       3.75
H      14.25       4.74       5.80
H      14.02       4.47       8.20
H      11.49       0.93       3.96
H      11.69       2.93      10.42
H       8.43       3.79      21.88
H      12.78       1.44       6.00
H      10.60       7.56      20.62
H      12.87       2.13       8.38
H       6.13       2.97       8.36
H       7.42       3.36      10.44
H       4.13       6.21       4.17
H       5.86       5.82      10.72
H       3.95       5.10       6.37
H       4.54       4.96       8.77
H       6.71       9.60       3.67
H       7.46       1.88      20.02
H      12.48       6.18      22.27
H       8.65      10.33       8.03
H       8.43       9.22      10.24
H      14.40       6.40      20.20
H      15.28       8.84      21.32
H      12.05       2.07      21.76
H      17.25      11.50      19.91
H       8.56       5.79      21.10
H      13.98       4.71       9.99
H       7.19       0.94       2.90
H      14.93      11.20      21.53
H       5.60       3.13       5.02
H       5.25       1.47       5.43
H       4.85       2.76       6.60
H       8.91      11.42       5.98
H       8.93      10.28       4.61
H       7.54      11.34       4.83
H      11.19       5.06      21.02
H      11.89       4.27      19.59
H      10.29       5.03      19.48
H       5.78       5.93      21.79
H       4.39       7.45      19.84
H       8.44       8.91      22.20
H       7.04      10.43      20.25
H      17.30       9.74      21.53
H       5.95       3.97      14.86
H       0.68       1.07      27.41
C       7.65       7.41      15.82
C      12.44       7.73      18.27
C      10.48       0.96      20.36
C      11.64       7.16      15.81
C      11.03       2.02      21.36
C       9.67       1.59      24.88
C       9.81       2.73      16.98
C       9.19       0.79      21.23
C       9.74       1.86      22.26
C       8.47       1.92      20.42
C       9.76       2.09      19.52
C      12.16       7.50      17.10
C       9.02       2.99      21.42
C      10.32       3.17      20.56
C       9.70       1.73      23.67
C       9.75       3.44      15.73
C       9.79       2.34      18.14
C       5.28       7.77      20.38
C       6.06       6.93      21.44
C       5.72       8.41      24.96
C       7.19       7.85      17.11
C       5.41       9.04      21.29
C      14.23       8.56      21.15
C       6.18       8.19      22.38
C       6.76       9.43      20.61
C       6.64       8.16      19.66
C       7.54       8.59      21.67
C       7.63       7.32      12.00
C       7.41       7.31      20.76
C       5.94       8.27      23.77
C       6.91       8.05      18.28
C      11.77       8.44      10.03
C      11.97       8.64       8.66
C      13.16       8.44      22.32
C      12.33       8.96       5.86
C      11.71       9.99       6.65
C      11.54       9.83       8.00
C      12.53       9.12       4.48
C      13.16       8.11       3.73
C      11.77       7.08      12.10
C      12.94       6.31       9.96
C      13.09       6.44       8.55
C      12.61       7.61       7.91
C      13.68       5.41       7.75
C      13.75       7.20      20.55
C      13.81       5.54       6.40
C      13.39       6.73       5.73
C      12.77       7.77       6.50
C      13.57       6.92       4.35
C      12.22       7.28      10.69
C      10.75       2.85       9.88
C       9.58       3.69      11.95
C      10.72       2.45       8.54
C      10.63       1.64       5.82
C      11.87       1.71       6.53
C      12.72       7.97      19.63
C      11.92       2.10       7.84
C      10.58       1.21       4.50
C       9.36       1.09       3.81
C       8.33       3.10       9.89
C       8.27       2.71       8.55
C       9.47       2.38       7.85
C       7.04       2.67       7.83
C      13.20       9.34      20.27
C       6.94       2.32       6.51
C       8.14       1.92       5.80
C      12.67       7.08      21.67
C       9.40       1.98       6.49
C       8.15       1.44       4.46
C       9.56       3.18      10.55
C       6.26       6.59      10.07
C       5.89       6.66       8.72
C       5.21       6.81       5.95
C       4.65       5.80       6.81
C       4.97       5.73       8.13
C      12.12       9.22      21.40
C       4.86       6.91       4.60
C      11.64       7.86      20.80
C       5.40       7.92       3.81
C       7.72       8.52       9.80
C       7.38       8.62       8.44
C       6.47       7.67       7.89
C       7.94       9.62       7.59
C       7.65       9.71       6.25
C       6.71       8.76       5.68
C       6.13       7.75       6.51
C       6.32       8.83       4.34
C      13.60       8.74      24.90
C      13.39       8.63      23.70
C       7.17       7.51      10.60
C       9.70       1.16      26.25
C      14.04       8.97      26.24
C       5.32       8.79      26.28
C       9.40       0.51       2.46
C      13.54       8.37       2.32
C       4.91       8.15       2.42
C       5.59       2.42       5.85
C       8.29      10.74       5.38
C      10.95       4.45      20.14
O       8.61       3.83      15.36
O      14.84       8.10      26.74
O       4.65       7.92      26.97
O       7.35       6.23      15.49
O       5.33       9.17       1.81
O      10.51       0.16       1.98
O       8.26       0.36       1.81
O      13.22       9.51       1.82
O      14.23       7.49       1.71
O       4.04       7.31       1.95
O      15.75       9.54       0.48
O      11.00       7.97      12.60
O       8.36       8.24      15.14
O      10.89       8.03      15.24
O      11.91       6.00      15.35
O      10.87       3.68      15.14
O       8.48       3.96      12.50
O       7.21       6.32      12.63
O       8.49       8.17      12.47
O       8.43       6.45      20.40
O      13.46       5.25      10.62
O       6.97       1.31       3.80
O      12.09       6.00      12.71
O      10.74       3.87      12.50
O       9.51       5.94      13.94
O       5.60       9.96      26.64
O      10.84       0.96      26.77
O       8.56       0.96      26.82
O      13.64      10.03      26.83
O       6.28       4.22      13.99
O       6.25      11.31       0.55
