104

Al       0.10      35.75      12.38
Al       0.10      21.45       4.13
H       3.52      18.84       7.30
H       3.46      16.64       8.38
H       0.71      15.24       5.35
H       0.77      17.46       4.28
H       0.71      13.36      11.16
H       3.46      11.96       8.13
H       3.52       9.76       9.21
H       0.77      11.14      12.23
H       3.52      25.50       4.80
H       3.46      27.54       6.17
H       0.71      25.61       8.90
H       0.77      23.57       7.51
H       0.71      31.59       7.61
H       3.46      29.66      10.34
H       3.52      31.70      11.71
H       0.77      33.62       9.00
H       3.52      20.01       0.29
H       3.46      34.47      22.60
H       0.71      37.80      22.91
H       0.77      23.32       0.60
H       0.71      33.70      18.37
H       3.46      37.02      18.68
H       3.52      37.19      16.23
H       0.77      33.88      15.92
C       2.18      35.66      14.42
C       2.18       8.96      11.44
C       2.18      34.03      11.29
C       2.18      19.64       5.07
C       2.18      23.17       5.22
C       2.18      21.54       2.09
C       2.14      18.29       5.73
C       2.88      18.06       6.89
C       2.84      16.81       7.50
C       2.06      15.78       6.96
C       1.33      16.02       5.78
C       1.37      17.27       5.17
C       1.98      14.46       7.60
C       1.98      14.13       8.91
C       1.33      12.58      10.74
C       2.06      12.82       9.55
C       2.84      11.78       9.01
C       2.88      10.54       9.62
C       2.14      10.30      10.78
C       1.36      11.33      11.34
C       2.14      24.41       6.06
C       2.88      25.54       5.68
C       2.84      26.69       6.45
C       2.06      26.74       7.62
C       1.33      25.59       8.01
C       1.37      24.44       7.23
C       1.98      27.95       8.44
C       1.98      29.25       8.07
C       1.33      31.61       8.51
C       2.06      30.46       8.89
C       2.84      30.51      10.06
C       2.88      31.66      10.83
C       2.14      32.78      10.45
C       1.37      32.75       9.29
C       2.14      21.64       0.60
C       2.88      35.05      24.58
C       2.84      35.14      23.19
C       2.06      36.13      22.57
C       1.33      37.03      23.37
C       1.37      36.93      24.75
C       1.98      36.24      21.11
C       1.98      35.26      20.17
C       1.33      34.46      17.91
C       2.06      35.37      18.71
C       2.84      36.35      18.09
C       2.88      36.45      16.70
C       2.14      35.56      15.92
C       1.37      34.56      16.53
N       1.93      13.34       6.60
N       1.93      15.26       9.91
N       1.93      27.65       9.91
N       1.93      29.55       6.60
N       1.93      37.66      20.64
N       1.93      33.84      20.64
O       3.17      34.80      11.12
O       3.17      35.13      13.83
O       3.17       8.71      12.19
O       1.21      34.21      12.10
O       1.21       8.17      11.19
O       1.21      36.27      13.86
O       3.17      22.07       2.68
O       3.17      19.88       4.32
O       3.17      22.40       5.39
O       1.21      20.92       2.65
O       1.21      22.99       4.41
O       1.21      20.43       5.32
O       2.74      13.40       5.68
O       1.07      12.47       6.75
O       2.74      15.20      10.84
O       1.07      16.13       9.76
O       2.74      26.81      10.32
O       1.07      28.21      10.60
O       2.74      30.38       6.19
O       1.07      28.99       5.91
O       2.74      38.43      21.15
O       1.07      37.97      19.81
O       2.74      33.06      20.13
O       1.07      33.52      21.47
