103

Zn      10.04      12.71       6.88
Zn      -3.80      -3.67       8.80
Zn       2.36       4.93       6.84
Zn       3.84       3.87       8.82
Zn      10.05       0.93       0.08
Zn       2.36      16.33       0.06
H      -1.37       2.26       8.63
H      -0.94       4.65      13.80
H      -0.59      -0.17       9.90
H      -0.43       7.35      12.41
H       1.26       4.12      12.56
H      -0.08       5.98      10.50
H       7.13       2.75       2.53
H       6.16       0.02       3.57
H       5.22       3.60       3.95
H       6.38       1.58       5.97
H       1.86      -0.10       8.43
H      -5.88      10.88       9.81
H       0.60      -1.61       6.35
H      -0.21       0.82       5.10
H       1.49      -5.10      12.93
H      -5.87       9.79      12.20
H      -0.52      -4.41      11.53
H       5.42      12.59       2.89
H       6.33      12.21       1.41
H       4.21      12.49       0.05
H       4.02      11.24       1.30
H       3.32      12.86       1.55
H       6.60       7.15       8.55
H       4.40       8.89       7.27
H       8.00       9.15       7.86
H       5.66      10.70       9.12
H      13.05      -0.75       2.97
H       7.84      13.49       3.01
H      12.82      -2.26       5.04
C      -7.46      12.27       9.17
C       4.89       8.02       7.72
C       6.98       9.27       8.21
C      -1.98      -2.00       7.87
C       6.62      10.50       8.64
C       6.28      14.95       2.42
C       6.09      16.30       2.41
C       7.21      14.31       3.36
C       7.24      14.66       4.66
C       1.72       4.92       9.97
C       1.32       2.58       7.26
C      -0.27       0.59       6.17
C       4.92       3.13       6.51
C       4.15       6.74       7.66
C       7.58       0.27       1.90
C       8.10      14.02       5.67
C       1.85      -7.64      13.79
C      -1.95       7.20      13.94
C      11.32      -0.70       1.64
C      -0.51       5.34      13.07
C      -0.93       6.62      13.04
C       0.55       4.87      12.19
C      -1.59       0.56       7.00
C       0.67       5.31      10.92
C       6.60       2.08       3.23
C       6.72       0.76       3.01
C       5.80       2.72       4.25
C       7.57      11.63       8.52
C       5.76       2.38       5.56
C      -0.48       0.05       8.84
C      -0.93       1.38       8.15
C       0.43       1.40       7.32
C       0.86       0.07       8.02
C      -1.14      -0.79       7.69
C       0.18      -0.75       6.86
C       5.46      12.75       1.80
C       4.18      12.31       1.14
C       0.92      -5.83      12.35
C      -5.25      10.54      12.68
C       0.02      -5.34      11.32
C      -6.46      11.74      10.13
C       6.14       8.08       8.21
Cl      -3.19       0.85       6.36
O      -7.31      11.89       7.94
O       1.10      16.74       1.49
O       2.78      -6.88      14.27
O      -2.11      -4.64       9.59
O      -4.70       8.86      14.21
O      -1.80       8.44      14.20
O      -2.90       6.45      14.40
O      11.52       0.53       1.27
O       3.97      16.35       1.38
O      -1.73      -3.00       7.13
O      -2.89      -1.95       8.78
O       2.75       4.25      10.39
O       9.03      13.21       5.29
O      14.11      -3.35       6.88
O       8.55      11.51       7.72
O      13.61      -5.00       9.25
O       1.55       5.29       8.76
O       5.63      14.17       1.53
O       1.06       3.54       6.43
O       2.30       2.58       8.07
O       4.04       3.93       6.07
O       5.14       2.90       7.77
O       3.18       6.69       6.81
O       4.51       5.79       8.42
O       8.45       1.06       1.42
