162

Zn       3.93       7.85       8.76
Zn      -2.02      27.66       9.28
Zn      19.88      29.07      11.48
Zn      18.67      27.95       8.76
Zn      19.88       9.60       0.81
Zn       3.93      23.30      17.23
Zn      18.67      12.50       0.29
Zn      -2.02      12.21       0.81
H      26.95      17.93      18.46
H       4.02      19.96      14.76
H      26.95       9.70      13.95
H       4.02      11.73      10.25
H      -1.47      15.76       2.91
H      18.12      16.18       2.15
H      -1.47      23.98       7.43
H      18.12      24.40       6.66
H      16.66       8.01       2.91
H      14.99      11.92       2.15
H       8.82       5.54       7.42
H       7.15       9.44       6.66
H       7.15      24.22      14.76
H       8.82      25.67      18.46
H      14.99      26.70      10.25
H      16.66      28.15      13.95
H      23.72       5.98       6.46
H       0.09      11.47       3.12
H      21.22       7.81       3.12
H       2.59       9.64       6.46
H      21.22      28.08      14.23
H       2.59      24.28      14.48
H      23.72      26.25      17.57
H       0.09      26.12      11.14
C       6.61       7.06       7.83
C      22.23      27.34      12.25
C      27.39       9.28      11.32
C      17.20      27.85      11.32
C       1.58       7.57       6.90
C      20.23      25.63       7.83
C       3.58      20.38      17.40
C       1.58      25.03      16.47
C      17.20      10.40       1.74
C      20.23      14.53       1.74
C      22.23       9.89       2.67
C       6.61      24.52      17.40
C       0.78       8.16       5.82
C      23.03       9.30       3.75
C      23.46       7.45       5.30
C       0.35      10.01       4.27
C      22.69       8.01       4.27
C       1.12       9.44       5.30
C      23.03      26.75      13.32
C       0.78      25.61      15.40
C      22.69      27.00      14.68
C       1.12      25.37      14.03
C      23.46      26.44      15.71
C       0.35      25.93      13.00
C       3.58      19.07      16.68
C      27.14      17.89      17.39
C      27.14      16.67      16.72
C      27.39      16.60      15.33
C       3.83      17.82      14.64
C       3.83      19.04      15.30
C      27.39      15.37      14.65
C      27.39      14.30      14.06
C      27.39      13.07      13.39
C      27.14      11.85      14.08
C      27.14      10.63      13.41
C      27.39      10.59      12.03
C       3.83      11.77      11.32
C       3.83      12.99      11.99
C      -3.58      15.84       2.46
C      -2.39      16.33       3.01
C      -2.39      17.55       3.68
C      -3.58      18.32       3.82
C      19.04      17.78       3.25
C      19.04      16.57       2.58
C      20.23      19.55       4.49
C      20.23      20.62       5.08
C      20.23      21.85       5.75
C      -2.39      22.38       6.33
C      -2.39      23.59       6.99
C      20.23      24.32       7.11
C      19.04      23.83       6.56
C      19.04      22.61       5.90
C      15.95      10.00       2.46
C      15.84       8.72       3.01
C      14.68       8.36       3.68
C      13.59       9.26       3.82
C      13.74      10.55       3.25
C      14.90      10.92       2.58
C      12.41       8.89       4.49
C      11.39       8.57       5.08
C      10.22       8.20       5.75
C      10.07       6.90       6.33
C       8.91       6.53       6.99
C       7.86       7.45       7.11
C       7.97       8.74       6.56
C       9.13       9.10       5.90
C       7.86      24.91      16.68
C       7.97      24.68      15.31
C       9.13      25.05      14.64
C      10.22      25.65      15.33
C      10.07      25.87      16.72
C       8.91      25.50      17.39
C      11.39      26.02      14.65
C      12.41      26.35      14.06
C      13.59      26.72      13.39
C      13.74      26.50      11.99
C      14.90      26.87      11.32
C      15.95      27.46      12.03
C      15.84      27.69      13.41
C      14.68      27.32      14.08
Cl       4.14      17.78      12.95
Cl      26.83      15.23      17.60
Cl       4.14      14.43      11.11
Cl      26.83      11.88      15.77
Cl      17.57      18.67       3.39
Cl      -0.92      18.14       4.35
Cl      17.57      22.02       5.22
Cl      -0.92      21.49       6.18
Cl      12.45      11.69       3.39
Cl      14.55       6.78       4.35
Cl       9.26      10.68       5.23
Cl      11.36       5.77       6.18
Cl      11.36      26.60      17.60
Cl       9.26      24.77      12.95
Cl      14.55      27.60      15.77
Cl      12.45      25.77      11.11
O      -3.58      28.81       9.57
O       5.69       7.94       7.90
O      -1.25      27.10      11.02
O      27.16       8.24      12.02
O       6.57       5.88       8.31
O       3.81       9.31      10.06
O      21.22      28.08      12.56
O      18.12      28.38      12.02
O      25.06       6.41       7.36
O      17.24      27.63      10.06
O       2.59       8.23       7.36
O      -2.47      26.02       8.31
O      19.11      26.25       7.90
O       3.58      23.56      19.14
O      27.16      20.35      18.66
O       2.59      24.28      16.16
O      17.24      11.58       1.26
O       3.81      21.42      16.70
O      18.12       9.52       1.67
O      25.06      25.27      17.70
O      19.11      14.14       1.26
O      -1.25      11.05       2.22
O      -2.47      13.91       1.67
O      21.22       9.22       2.22
O       5.69      23.98      16.70
O       6.57      24.74      18.66
O      23.07       6.23       5.74
O       0.73      11.23       3.83
O      21.65       7.28       3.83
O       2.16      10.18       5.74
O      21.65      27.77      15.07
O       2.16      24.60      13.65
O      23.07      26.72      16.98
O       0.73      25.65      11.74
