244

Zn       7.55       8.98      15.49
Zn      27.03      10.78      18.22
Zn       9.01      11.81      15.64
Zn      25.40      11.67      15.65
Zn      18.36       7.23       8.81
Zn      16.84       4.39       8.62
Zn      18.60       5.44       6.17
Zn      20.03       4.50       8.91
Zn      16.17      16.27      22.39
Zn      17.69      15.42      25.09
Zn      15.89      18.05      25.03
Zn      14.47      15.15      24.87
Zn      17.69       4.96      31.93
Zn      14.48       4.89      31.78
Zn      24.75      19.80      31.76
Zn      18.37      17.59       1.95
H      22.95       5.73      11.62
H      20.90       9.49      11.20
H      24.57       6.83      13.19
H      11.49      13.19      22.67
H      13.67      14.94      19.41
H       9.83      12.26      21.02
H      13.28       5.59      11.03
H      19.31      14.79      19.57
H      16.25      19.69      19.52
H      29.11      18.36      11.19
H      12.13       1.65       4.96
H      14.53       2.70       1.54
H      13.85       2.72       6.45
H      18.34      14.17       4.82
H       4.66       2.66       1.36
H      22.25      17.65      29.15
H      11.42       3.69      29.30
H      20.51      16.70      27.62
H      14.02       8.58      29.33
H      21.17       3.75      29.44
H      12.39      12.46      11.83
H      24.84      10.18      21.47
H       8.99       8.34      22.34
H      23.45      14.36      11.63
H      20.50       8.12       2.14
H       5.42       3.82       8.19
H      19.88      10.94      26.14
H      29.07      15.45      25.79
C       7.58       7.82      18.17
C       9.83      12.39      18.41
C      10.11       9.50      14.18
C      26.93      13.77      14.26
C      24.64       9.30      14.08
C      24.45      12.09      18.39
C      15.75       6.71      10.09
C      16.08       3.94       5.83
C      18.55       8.38       6.13
C      21.13       4.00       6.21
C      20.83       6.92      10.39
C      18.42       2.39      10.15
C      18.84      15.05      22.39
C      18.36      17.82      26.62
C      15.95      19.22      22.33
C      13.34      17.46      26.32
C      13.70      14.67      22.08
C      16.13      13.24      26.35
C      16.10       7.03      30.55
C      22.27      20.16      30.22
C      27.39      20.26      30.50
C      18.39      14.64       1.99
C      12.23       1.48       2.24
C       7.10       1.29       1.99
C      23.64       8.75      13.10
C      21.82       7.55      11.33
C      22.60       9.51      12.52
C      22.86       6.79      11.88
C      21.70       8.90      11.64
C      23.76       7.39      12.75
C      10.83      13.05      19.30
C      12.69      14.11      21.13
C      11.92      13.83      18.84
C      11.60      13.36      21.60
C      12.83      14.35      19.76
C      10.69      12.84      20.69
C      12.44       9.62      13.03
C      13.51       6.61      11.31
C      11.26       8.98      13.42
C      14.67       7.26      10.92
C      12.71       7.47      12.09
C      13.27       8.76      12.27
C      23.30      12.81      20.63
C      20.08      14.43      20.25
C      23.41      12.71      19.24
C      19.97      14.51      21.62
C      21.30      13.83      19.89
C      22.09      13.45      21.00
C       7.37       6.52      20.41
C       7.51       2.90      20.16
C       7.52       6.62      19.03
C       7.35       2.81      21.53
C       7.51       4.26      19.76
C       7.36       5.16      20.84
C      25.80      15.75      13.00
C      28.08      18.08      11.41
C      26.88      15.01      13.46
C      27.00      18.82      10.96
C      27.64      16.97      12.15
C      26.23      16.88      12.25
C      15.14       3.32       4.85
C      13.23       2.11       3.16
C      15.33       3.30       3.45
C      13.03       2.11       4.55
C      14.38       2.70       2.62
C      13.98       2.71       5.37
C      18.50       9.69       3.88
C      18.37      13.31       4.17
C      18.48       9.58       5.27
C      18.39      13.41       2.79
C      18.40      11.95       4.56
C      18.45      11.05       3.47
C       3.77       2.73       5.85
C       4.87       2.45       2.41
C       2.62       3.40       5.43
C       6.00       1.79       2.83
C       4.05       2.79       3.51
C       4.59       2.37       4.75
C      19.31      18.48      27.57
C      21.25      19.56      29.30
C      19.18      19.80      28.06
C      21.39      18.25      28.84
C      20.15      20.32      28.92
C      20.43      17.72      27.99
C      17.27      11.41      27.80
C      15.04       8.93      29.21
C      16.18      12.06      27.22
C      16.13       8.27      29.76
C      15.46      10.07      28.50
C      16.86      10.26      28.53
C      30.72      17.29      27.66
C      29.60      20.35      29.24
C      31.85      17.95      27.18
C      28.48      19.69      29.71
C      30.42      19.47      28.50
C      29.90      18.15      28.42
S      11.18       7.34      12.87
S      14.80       8.89      11.50
S      22.07      13.42      18.40
S      21.34      13.87      22.49
S       7.63       5.08      18.26
S       7.19       4.34      22.34
S      28.41      15.68      13.00
S      25.45      18.17      11.42
S      18.39      11.12       6.07
S      18.43      11.88       1.96
S       2.54       3.59       3.71
S       6.10       1.57       4.56
S      14.67      11.29      27.59
S      17.66       9.04      29.44
S      31.91      19.61      27.66
S      28.41      18.01      29.26
S      12.99      11.25      13.47
S      24.46      12.29      21.88
S       7.09       7.83      21.55
S      24.08      15.49      13.32
S      18.46       8.39       2.68
S       4.19       2.24       7.50
S      18.97      11.91      27.79
S      30.33      15.56      27.50
Cl      22.40      11.20      12.79
Cl      12.18      14.23      17.19
Cl      16.71       3.96       2.66
Cl      17.85      20.84      27.70
O       7.44      10.79      16.25
O       7.42       7.62      16.92
O       8.76      11.97      18.97
O      10.05      10.75      14.36
O       7.81       8.92      18.75
O       9.26       8.62      14.58
O      10.12      12.26      17.18
O      28.08      13.46      14.71
O      24.30      10.32      14.75
O      25.84      13.12      14.39
O       6.13       8.66      14.17
O      25.26      11.27      18.93
O      24.40      12.42      17.16
O      18.46       5.39       8.13
O      16.76       7.47       9.91
O      15.92       3.62       7.06
O      18.89       7.29       5.58
O      15.59       5.53       9.62
O      18.26       8.57       7.37
O      16.95       4.75       5.39
O      20.12       4.38       5.53
O      20.98       5.67      10.17
O      21.30       4.09       7.46
O      19.93       7.68       9.91
O      17.28       2.88       9.81
O      19.57       2.86       9.86
O      16.04      16.22      24.35
O      17.83      15.46      21.72
O      18.51      16.56      26.45
O      15.74      19.37      23.58
O      18.98      15.07      23.66
O      16.13      18.13      21.71
O      17.50      18.55      26.03
O      14.33      18.26      26.21
O      13.53      14.41      23.31
O      13.19      16.33      25.77
O      14.63      15.37      21.57
O      17.24      13.70      25.93
O      14.96      13.68      26.08
O      24.70      21.63      32.48
O      17.23       6.59      30.94
O      22.06      21.36      30.61
O      26.44      19.47      30.81
O      14.96       6.50      30.76
O      18.86       3.85      30.81
O      23.27      19.43      30.53
O      18.36      14.49       0.72
O      11.21       0.94       2.79
O      18.42      15.74       2.64
O      12.48       1.53       0.99
O       7.00       1.46       0.74
O       8.07       0.72       2.62
O      11.97      12.23      12.69
O      12.80      11.49      14.86
O      14.28      11.40      12.84
O      24.19      10.73      21.98
O      25.81      12.54      21.47
O      23.95      12.85      23.10
O       8.46       8.67      21.59
O      25.72       8.72      21.01
O       6.91       7.22      22.85
O      23.75      14.12      12.53
O      23.85      15.22      14.70
O      23.38      16.55      12.63
O      19.92       7.70       2.82
O      17.51       7.39       3.05
O      18.42       9.04       1.39
O       4.47       3.63       8.27
O       3.08       1.63       8.15
O       5.47       1.56       7.39
O      19.41      11.79      26.24
O      19.08      13.29      28.15
O      19.68      10.89      28.52
O      30.04      15.36      25.93
O      11.85      14.76      27.82
O      29.07      15.39      28.19
