118

Zn       5.74       7.99      11.88
Zn       8.68       7.89      11.88
H       6.17       5.02      22.85
H       8.25      10.86       0.91
H       6.18       4.49       1.61
H       8.24      11.39      22.15
H       9.42       8.13       5.09
H       9.31       7.85      18.69
H       9.41       8.31       7.55
H       9.34       7.64      16.24
H       5.08       8.25       7.53
H       5.01       7.57      16.21
H       5.11       8.04       5.07
H       5.00       7.75      18.67
H       5.55      12.19      13.31
H       8.87       3.69      10.45
H       4.56      14.35      13.91
H       9.86       1.54       9.85
H       4.63       8.59       9.67
H       9.79       7.30      14.09
H       4.64       7.26      14.04
H       9.78       8.62       9.72
H       9.81      12.27      10.14
H       4.60       3.61      13.61
C       7.21       5.42      11.58
C       7.21      10.46      12.18
C       8.47       8.15       5.63
C       8.38       7.78      18.14
C       8.46       8.26       7.02
C       8.39       7.66      16.76
C       7.24       8.29       7.72
C       7.18       7.60      16.05
C       6.03       8.22       7.00
C       5.96       7.62      16.74
C       6.04       8.11       5.62
C       5.95       7.73      18.13
C       7.26       8.06       4.94
C       7.16       7.82      18.82
C       8.29      12.59      11.32
C       6.13       3.29      12.44
C       7.29      11.95      12.09
C       7.13       3.93      11.67
C       6.32      12.71      12.75
C       8.10       3.18      11.01
C       6.32      14.11      12.68
C       8.09       1.78      11.08
C       7.23       8.32       9.19
C       7.19       7.56      14.57
C       7.33      14.78      11.92
C       7.09       1.11      11.84
C       8.33      14.02      11.24
C       6.09       1.87      12.52
C       5.33      14.87      13.34
C       9.09       1.02      10.42
C       5.08       1.14      13.27
C       9.34      14.74      10.49
C       2.98       8.28      10.75
C      11.45       7.60      13.01
C       2.98       7.55      12.98
C      11.44       8.33      10.78
C       1.57       7.62      13.06
C      12.86       8.26      10.69
C       1.56       8.23      10.68
C      12.86       7.66      13.08
C       0.86       7.93      11.87
C      13.57       7.95      11.88
C       0.85       7.43      14.30
C      13.57       8.45       9.46
C       0.83       8.44       9.45
C      13.59       7.44      14.31
C       7.55       9.24      20.76
C       6.87       6.65       3.00
C       6.78       6.85      21.02
C       7.64       9.03       2.74
C       6.82       7.03      22.49
C       7.60       8.86       1.27
C       7.22       8.26      23.05
C       7.20       7.62       0.71
C       7.58       9.36      22.23
C       6.84       6.52       1.53
C       6.47       5.96      23.31
C       7.95       9.92       0.45
C       6.45       5.32       0.95
C       7.97      10.57      22.81
C       4.00       1.80      13.93
C      10.42      14.08       9.83
C       1.52       7.32      15.56
C      12.90       8.57       8.20
C       1.48       8.56       8.19
C      12.94       7.33      15.57
N       7.16       7.98      20.25
N       7.26       7.91       3.51
N       3.66       7.92      11.86
N      10.77       7.96      11.90
N       3.11       2.35      14.45
N      11.31      13.53       9.31
N       2.01       7.26      16.62
N      12.42       8.62       7.14
N       1.95       8.62       7.12
N      12.47       7.26      16.64
O       6.12       6.07      11.48
O       8.30       9.82      12.27
O       6.04       9.96      12.17
O       8.38       5.93      11.60
O       6.11       8.38       9.82
O       8.31       7.51      13.94
O       6.09       7.62      13.92
O       8.33       8.26       9.84
O       7.83      10.16      20.00
O       6.59       5.73       3.76
O       6.45       5.80      20.47
O       7.96      10.09       3.29
O       3.62       8.70       9.68
O      10.80       7.18      14.08
O       3.63       7.11      14.04
O      10.79       8.78       9.72
O       9.14      11.78      10.65
O       5.28       4.11      13.10
