92

Al       3.97      28.93      25.05
Al       3.97      14.46      16.70
H       3.25      16.39      13.10
H       3.33      16.43      10.59
H       0.85      12.81      12.96
H       0.84      16.12       3.74
H       3.24      12.54       3.61
H       3.32      12.50       6.11
H       3.25      16.63      20.17
H       3.33      18.77      21.46
H       0.85      18.53      17.14
H       0.84      24.86      24.61
H       3.24      26.77      21.58
H       3.33      24.62      20.30
H       3.25      10.38      16.84
H       3.33      37.12      18.06
H       0.85      12.05      20.01
H       0.84      31.35      21.75
H       3.24      33.02      24.92
H       3.33      35.20      23.70
H       1.00      12.75       9.41
H       1.00      16.18       7.29
H       1.00      21.64      18.87
H       1.00      21.76      22.89
H       1.00      37.93      21.83
H       1.00      34.39      19.92
C       1.98      30.76      24.13
C       1.98      14.35       2.05
C       1.98      27.21      23.93
C       1.98      14.58      14.65
C       1.98      16.18      17.82
C       1.98      12.63      17.63
C       2.04      14.60      13.16
C       2.74      15.63      12.51
C       2.79      15.64      11.12
C       2.18      14.62      10.37
C       1.49      13.58      11.05
C       1.41      13.59      12.44
C       2.23      14.56       8.96
C       2.23      14.37       7.74
C       2.17      14.31       6.33
C       1.48      15.35       5.65
C       1.40      15.34       4.26
C       2.04      14.33       3.54
C       2.74      13.30       4.20
C       2.79      13.29       5.58
C       2.04      17.46      18.59
C       2.74      17.52      19.81
C       2.79      18.71      20.51
C       2.18      19.87      20.00
C       1.49      19.80      18.76
C       1.41      18.59      18.07
C       2.23      21.13      20.66
C       2.23      22.27      21.10
C       2.17      23.52      21.76
C       1.48      23.59      22.99
C       1.40      24.80      23.68
C       2.04      25.93      23.17
C       2.74      25.88      21.95
C       2.79      24.68      21.24
C       2.04      11.33      18.36
C       2.74      39.18      17.79
C       2.79      37.97      18.47
C       2.18      37.84      19.74
C       1.49      38.94      20.30
C       1.41      40.14      19.59
C       2.23      36.64      20.49
C       2.23      35.68      21.26
C       2.17      34.49      22.02
C       1.48      33.38      21.46
C       1.40      32.18      22.16
C       2.04      32.06      23.40
C       2.74      33.14      23.96
C       2.79      34.35      23.28
O       1.02      27.36      24.76
O       1.02      29.97      23.84
O       1.02      14.99       1.51
O       2.90      28.07      23.71
O       2.90      13.73       1.41
O       2.90      30.52      24.98
O       1.02      13.42      17.92
O       1.02      13.93      15.19
O       1.02      16.04      17.00
O       2.90      12.87      16.78
O       2.90      15.32      18.04
O       2.90      15.19      15.29
O       0.88      12.58      10.37
O       0.87      16.35       6.34
O       0.88      20.90      18.24
O       0.87      22.50      23.52
O       0.88      38.85      21.51
O       0.87      33.47      20.25
