78

Zn       5.20       5.86       8.75
Zn       5.20       8.67       8.89
H       3.73      10.87       7.50
H       3.66      13.35       7.53
H       6.78      13.23      10.53
H       6.70      10.73      10.37
H       3.62       1.31       7.07
H       6.76       1.18      10.05
H       6.71       3.67      10.07
H       3.70       3.81       7.24
H       6.63      -0.92       9.86
H       3.78      15.46       7.73
H       5.22       9.63       4.64
H       5.25       9.75       2.17
H       5.23       5.44       1.98
H       5.21       5.35       4.47
H       5.18       9.11      15.67
H       5.16       4.79      15.44
H       5.18       4.94      12.97
H       5.19       9.22      13.17
H       5.15       4.86      17.56
H       5.25       9.67       0.06
H       8.27       9.10       7.05
H       2.14       9.05       7.04
C       5.19       7.41       6.20
C       2.57       7.21       8.81
C       5.21       7.17      11.43
C       7.83       7.23       8.82
C       4.38      11.44       8.16
C       4.36      12.82       8.18
C       5.23      13.52       9.04
C       6.09      12.75       9.85
C       6.05      11.36       9.77
C       5.27      14.97       9.15
C       5.14      -0.44       8.45
C       4.32       1.79       7.75
C       5.19       1.01       8.55
C       6.06       1.71       9.41
C       6.04       3.09       9.43
C       4.36       3.17       7.84
C       5.21       7.48       4.71
C       5.22       8.72       4.04
C       5.24       8.78       2.66
C       5.24       7.60       1.88
C       5.23       6.36       2.56
C       5.21       6.30       3.95
C       5.25       7.59       0.42
C       5.16       6.94      17.20
C       5.18       8.19      15.08
C       5.17       6.95      15.75
C       5.17       5.77      14.96
C       5.19       5.84      13.57
C       5.20       7.09      12.92
C       5.19       8.26      13.69
C       9.33       7.26       8.78
C      10.04       8.16       7.93
C      10.05       6.40       9.58
C       9.36       9.06       7.06
C      10.06       9.92       6.26
C       1.07       7.25       8.77
C       0.34       6.40       9.58
C       0.36       8.15       7.92
C       1.05       9.04       7.06
C       0.35       9.91       6.26
N       5.21      10.72       8.94
N       5.20       3.82       8.66
O       5.19       6.26       6.73
O       5.18       8.52       6.84
O       3.16       8.34       8.93
O       3.13       6.08       8.70
O       5.22       8.34      10.91
O       5.21       6.07      10.78
O       7.27       6.10       8.72
O       7.24       8.36       8.93
F       0.95       5.55      10.44
F       9.44       5.55      10.44
F       9.42      10.80       5.45
F       1.02      10.79       5.46
