148

Zn       4.65       6.36       8.79
Zn       1.98       2.58       8.64
Zn       2.08       5.28      10.56
Zn       4.55       3.66       6.95
H       5.69       8.80      10.83
H      -0.28       6.80       8.98
H       3.01       4.87       4.34
H      -0.40       3.44       6.61
H       3.11       8.13       6.62
H       6.27       4.75       4.33
H      -1.12       5.16      11.78
H      -8.07       4.16      12.89
H      -6.30       1.94      12.90
H      -6.45       5.42      10.93
H       2.44      -0.73       8.25
H      11.80       4.20       8.89
H      13.57       1.98       8.90
H      11.95       0.72      10.86
H      -1.86      13.31       9.24
H      -2.95      11.17       7.73
H       0.48      14.30       6.11
H      -0.62      12.15       4.63
H      -3.22      12.91       5.50
H       4.92       2.98      14.65
H       3.85       4.18      12.98
H       4.83       1.79      16.82
H       8.66      10.47       2.85
H       7.50       9.45       4.81
H       3.81      -0.67      12.62
H       8.91       6.62       0.96
H       3.79      -1.85      14.81
H       7.81       5.58       2.92
H       1.66       5.09       2.47
H       0.51       4.54       0.34
H      14.52      -6.79      14.52
H       6.82       1.91       8.49
H       6.39      10.04      12.67
H      -1.67       3.46       4.67
H      10.78      -7.65      16.44
H      16.99       2.96       2.53
H       2.61       9.21      14.59
H       3.71       0.58      10.55
H       5.89       0.70       6.05
H       2.37       7.33      13.19
H       6.57       8.32       6.76
H      -3.02       2.29       8.09
H      -3.02       0.93       9.25
H      -2.42       0.68       7.57
H       8.18      -4.46       9.91
H       9.23      -3.99       8.52
H       9.85      -5.11       9.79
H       6.90       5.47      10.97
C       4.83       8.28      11.25
C       4.39      -0.60       7.11
C       4.01       2.03      12.27
C       7.40       3.49       9.99
C       6.38       7.34       6.32
C      -0.92       2.71       9.62
C       0.68       6.96       8.50
C       2.30       4.49       5.07
C       0.56       3.77       6.23
C       2.42       7.64       7.29
C       6.24       5.52       5.09
C       3.20      -0.15       7.73
C      -0.89       4.38      11.06
C       6.78       6.82       5.08
C      -1.78       3.46      10.47
C       1.06       7.92       7.54
C       0.92       4.25       4.96
C      -6.69       2.44      12.01
C      -7.65       3.68      12.00
C       8.69       3.16      10.47
C      -3.16       3.33      10.68
C      12.27       1.76      10.88
C       3.75       3.42      12.21
C      11.28       3.00      10.87
C      13.15       2.46       9.78
C      -5.78       3.14      10.91
C      12.20       3.70       9.78
C      -6.78       4.37      10.91
C       9.86       3.00      10.76
C      -4.37       3.23      10.85
C      -2.19      11.88       7.38
C      -1.58      13.04       8.22
C       4.89      -1.92       7.05
C       6.65       2.86       8.99
C       0.33       9.06       7.13
C      -2.33      12.82       6.14
C      -1.72      14.02       6.98
C      -0.90      12.42       5.65
C      -0.75      11.44       6.89
C      -0.28      13.59       6.48
C      -0.14      12.64       7.72
C       5.34      -3.05       7.02
C      -0.22      10.13       6.92
C       7.54       7.44       4.00
C       3.66       1.58      10.98
C       7.98       6.66       2.91
C       8.61       7.22       1.82
C       8.84       8.61       1.78
C       8.47       9.39       2.89
C       7.82       8.82       3.98
C       4.62       1.27      15.89
C       4.65       1.92      14.67
C       4.25      -0.09      15.95
C       4.29       1.26      13.47
C       4.06      -0.12      13.53
C       6.69       4.68      10.25
C       4.05      -0.79      14.75
C       4.47       9.49      13.50
C       3.57       9.72      14.57
C      11.45      -7.81      15.60
C      12.69      -7.13      15.59
C      13.56      -7.32      14.51
C       5.68      10.20      13.48
C       0.04       4.32       1.30
C       0.68       4.61       2.49
C      -1.20       3.66       1.31
C       4.96       0.58       6.61
C       0.12       4.24       3.74
C      -1.19       3.71       3.73
C      -1.84       3.43       2.54
C       3.13       7.54      12.45
C       4.16       8.51      12.46
C      -2.49       1.38       8.40
C       8.97      -4.81       9.21
N       4.25       7.27      10.57
N       0.34       3.14       9.73
N       1.75       6.19       8.81
N       2.72       4.16       6.31
N       1.65       3.71       7.02
N       2.81       6.61       8.07
N       5.58       5.29       6.24
N       0.36       4.19      10.63
N       9.33       9.31       0.66
N       3.94      -0.80      17.12
N      13.20      -6.36      16.65
N       3.09       1.18       7.60
N      18.00       3.07       0.19
N       3.26       3.74      11.00
N       5.59       3.63       8.66
N       3.21       2.61      10.24
N       5.62       4.75       9.44
N       4.18       1.63       6.90
N       3.19       6.81      11.32
N       5.67       6.43       7.01
O      -1.13       1.69       8.75
O       0.98      12.42       8.50
