186

Zr      18.26      22.14       1.92
Zr      18.26       0.73      21.85
Zr      18.26      18.10      21.93
Zr      18.27      20.61      19.40
Zr      15.82      20.68      21.90
Zr       2.39      20.65      21.88
H       1.90       1.49       1.43
H      16.33       0.20      19.85
H       1.90      18.73      19.84
H      16.27      20.11       1.34
H      17.31       2.74      20.47
H       0.88      -0.57      17.30
H      17.53      18.79      17.62
H      18.23      17.68      19.15
H       0.69      17.83       1.28
H      18.29      19.37       2.40
H      17.50       1.44       3.70
H      18.21       2.57       2.15
H       0.66      16.38      19.81
H      17.46      20.04       3.64
H       0.61       3.88       1.49
H      17.65      -0.64      16.95
H       7.72      16.87      21.48
H       5.39      13.31      22.02
H       3.29      14.68      22.06
H       5.63      18.25      21.54
H      12.83      13.39      21.94
H      10.40      16.91      21.56
H      12.45      18.33      21.57
H      14.89      14.82      21.94
H       5.31       5.44      21.65
H       7.75       1.97      22.34
H       5.71       0.52      22.29
H       3.26       3.98      21.61
H      12.79       5.41      21.93
H      10.31       1.93      22.25
H      12.34       0.47      22.24
H      14.83       3.95      21.96
H      11.25      10.65      21.97
H       6.95      10.68      21.77
H       6.93       8.18      21.81
H      11.22       8.14      22.00
H       7.86      20.66      18.09
H       5.43      21.18      14.59
H       3.37      21.11      16.01
H       5.81      20.60      19.51
H      14.96      20.98      15.95
H      12.54      20.28      19.43
H      10.48      20.42      18.02
H      12.89      21.13      14.55
H       7.80      22.06       3.16
H       5.36      21.59       6.66
H       3.30      21.64       5.23
H       5.74      22.10       1.73
H      12.82      21.68       6.72
H      10.45      22.29       3.20
H      12.51      -0.10       1.82
H      14.91      21.82       5.35
H      11.24      21.63       9.36
H       6.96      21.36       9.38
H       6.98      21.15      11.88
H      11.27      21.40      11.86
C       9.09      21.63       7.75
C       7.96      21.79       5.79
C      10.24      21.86       5.80
C       9.14      21.13      13.49
C      10.30      20.90      15.43
C       8.02      20.95      15.46
C       9.06       6.53      21.94
C      10.19       4.56      22.04
C       7.90       4.58      22.00
C       9.11      12.29      21.84
C       7.95      14.25      21.76
C      10.23      14.27      21.77
C      15.04      22.15       2.59
C       3.20       1.25      21.90
C      14.89       1.21      22.03
C       3.20      21.93       2.48
C       3.14      17.45      21.88
C      15.05      20.60      18.70
C       3.27      20.80      18.76
C      14.99      17.57      21.80
C       6.75      16.41      21.61
C       6.68      15.01      21.75
C       5.43      14.39      21.91
C       4.27      15.16      21.93
C       4.34      16.55      21.81
C       5.59      17.17      21.64
C      12.76      14.47      21.86
C      11.48      15.06      21.75
C      11.39      16.46      21.64
C      12.52      17.25      21.65
C      13.80      16.66      21.76
C      13.90      15.26      21.86
C       5.39       4.36      21.80
C       6.65       3.79      22.00
C       6.76       2.40      22.18
C       5.64       1.60      22.15
C       4.37       2.16      21.94
C       4.25       3.55      21.77
C      12.70       4.33      22.00
C      11.42       3.75      22.08
C      11.30       2.36      22.18
C      12.43       1.55      22.18
C      13.71       2.12      22.09
C      13.84       3.52      22.01
C      10.31      10.10      21.93
C       9.10      10.81      21.87
C       7.88      10.12      21.83
C       7.87       8.73      21.84
C       9.08       8.01      21.91
C      10.29       8.71      21.95
C       6.87      20.76      17.65
C       6.77      20.92      16.25
C       5.50      21.05      15.67
C       4.36      21.02      16.46
C       4.46      20.86      17.85
C       5.73      20.73      18.43
C      13.97      20.85      16.40
C      13.87      20.63      17.78
C      12.61      20.46      18.36
C      11.47      20.53      17.58
C      11.56      20.79      16.20
C      12.82      20.94      15.62
C       6.81      21.97       3.60
C       6.71      21.82       5.00
C       5.43      21.70       5.58
C       4.29      21.73       4.78
C       4.40      21.87       3.39
C       5.67      21.99       2.81
C      12.76      21.84       5.65
C      11.50      21.97       5.04
C      11.43      22.19       3.65
C      12.58      22.26       2.89
C      13.84      22.12       3.49
C      13.93      21.92       4.88
C      10.32      21.52       9.93
C       9.10      21.50       9.22
C       7.90      21.37       9.93
C       7.91      21.25      11.32
C       9.13      21.26      12.02
C      10.33      21.40      11.31
N       7.90      21.66       7.13
N       9.10      21.91       5.09
N      10.29      21.73       7.14
N      10.35      21.05      14.10
N       9.16      20.84      16.15
N       7.95      21.09      14.12
N      10.25       5.90      21.98
N       9.04       3.87      22.06
N       7.86       5.92      21.93
N       7.91      12.91      21.82
N       9.09      14.96      21.72
N      10.30      12.92      21.83
O      16.22      22.10       3.08
O      14.76      22.19       1.35
O       2.02       1.73      21.97
O       3.49       0.00      21.81
O      16.06       1.69      22.09
O      14.61      -0.03      21.87
O       2.03      21.91       2.96
O       3.50      22.02       1.24
O      18.25       1.38       3.08
O      18.27      20.16       3.11
O      18.19       3.28       1.37
O      18.16       2.27      20.59
O      17.20       0.66       0.44
O       1.30       0.99       0.85
O       1.96      16.96      21.88
O       3.42      18.69      21.92
O      16.24      20.62      18.21
O      14.78      20.60      19.93
O       2.09      20.89      18.28
O       3.54      20.61      19.99
O      16.16      17.09      21.78
O      14.69      18.82      21.89
O      18.22      16.96      19.94
O      18.26      18.43       1.23
O      18.30      18.84      18.22
O      18.30      -0.38      17.63
O       1.31      19.22      20.43
O      17.22      19.60      20.83
O       0.94      21.04       0.43
O      16.92      -0.36      20.38
O      16.87      20.67       0.84
O       0.98      -0.76      20.79
