140

Zn      10.63       9.55       5.30
Zn       5.39       6.48       9.83
Zn      13.47       9.37       5.08
Zn       2.55       6.66      10.05
H       4.02      10.18       7.25
H      11.99       5.84       7.88
H       1.55       9.99       7.12
H      14.47       6.04       8.01
H       1.68       8.82       3.15
H      14.34       7.20      11.98
H       4.17       8.88       3.12
H      11.85       7.15      12.01
H      13.90       8.83       0.74
H       2.12       7.20      14.39
H       9.69       9.61       1.13
H       6.32       6.42      14.00
H       9.70       5.41       5.78
H       6.31      10.62       9.35
H      13.86       5.19       4.64
H       2.16      10.84      10.49
H      10.17      13.84       5.76
H       5.85       2.19       9.37
H      14.36      13.62       4.67
H       1.65       2.41      10.46
H       8.46       9.28       7.34
H       7.55       6.74       7.79
H       5.97       9.15       7.37
H      10.04       6.88       7.76
H       6.05       9.99       3.12
H       9.96       6.03      12.01
H       8.55       9.99       3.27
H       7.47       6.04      11.86
H      10.18       9.94       9.74
H       5.84       6.09       5.39
H      14.47       9.89       9.29
H       1.55       6.13       5.84
H      10.65      10.57      13.77
H       5.36       5.46       1.36
H      14.87       9.81      13.38
H       1.15       6.22       1.75
Ir       9.05       2.08       5.99
Ir       6.97      13.95       9.14
Ir      14.20       1.82       4.58
Ir       1.82      14.21      10.55
C       4.32       9.54       5.19
C      11.70       6.49       9.94
C       3.56       9.85       6.32
C      12.46       6.17       8.81
C      12.13       9.66       7.82
C       3.88       6.37       7.31
C      11.97       9.34       2.57
C       4.05       6.69      12.56
C       2.17       9.77       6.26
C      13.84       6.26       8.87
C      11.89       6.86       5.28
C       4.13       9.17       9.85
C       2.25       9.12       4.03
C      13.77       6.91      11.10
C      11.81       9.24       1.08
C       4.20       6.79      14.05
C      12.75      10.20      13.42
C       3.27       5.83       1.71
C      11.80       5.35       5.26
C       4.22      10.67       9.87
C       3.63       9.17       4.02
C      12.38       6.86      11.11
C      12.26      13.56       5.21
C       3.76       2.47       9.92
C      12.93       8.98       0.27
C       3.09       7.05      14.86
C      10.55       9.41       0.49
C       5.46       6.61      14.64
C      10.55       4.76       5.59
C       5.46      11.27       9.54
C      12.17      12.07       5.17
C       3.85       3.96       9.96
C      12.97       4.63       4.93
C       3.05      11.40      10.20
C      11.67       2.68       5.32
C       4.35      13.35       9.81
C      11.60       1.29       5.31
C       4.42      14.74       9.82
C      11.12      14.31       5.54
C       4.89       1.72       9.59
C      13.47      14.19       4.93
C       2.54       1.83      10.20
C       5.79       9.57       5.23
C      10.23       6.45       9.90
C       7.88       9.42       6.43
C       8.14       6.61       8.70
C       6.49       9.37       6.44
C       9.53       6.66       8.69
C       6.54       9.81       4.07
C       9.48       6.22      11.06
C       7.93       9.83       4.14
C       8.09       6.20      10.99
C      12.30       9.86       9.29
C       3.72       6.17       5.84
C      11.20       9.97      10.15
C       4.82       6.06       4.98
C      13.56       9.96       9.89
C       2.46       6.07       5.24
C      12.59      10.13      11.96
C       3.43       5.89       3.17
C      11.63      10.43      14.24
C       4.39       5.59       0.89
C      14.01      10.00      14.02
C       2.01       6.02       1.11
C      10.47       3.36       5.63
C       5.55      12.67       9.50
C      12.92       3.23       4.95
C       3.10      12.80      10.18
N       1.53       9.40       5.13
N      14.49       6.62      10.00
N       8.58       9.64       5.30
N       7.43       6.39       9.83
N      12.73       0.61       4.97
N       3.28      15.42      10.16
N      11.33      10.09      11.47
N       4.69       5.94       3.66
N      10.38       0.72       5.60
N       5.63      15.31       9.53
N      13.71      10.11      11.21
N       2.31       5.92       3.92
O      10.90       9.53       3.25
O       5.11       6.50      11.88
O      10.94       9.55       7.38
O       5.07       6.47       7.75
O      13.20       9.59       7.14
O       2.81       6.43       7.99
O      13.14       9.22       3.05
O       2.88       6.80      12.08
O      10.79       7.51       5.37
O       5.23       8.52       9.76
O      13.25      11.43       4.94
O       2.77       4.59      10.19
O      13.05       7.37       5.23
O       2.97       8.65       9.90
O      11.02      11.56       5.37
O       5.00       4.47       9.77
