129

Zn       6.62       7.26       8.54
Zn       4.11       6.72      10.38
Zn       4.05       9.04       8.16
Zn       5.80       9.36      10.86
H      -3.58       9.35      12.78
H       4.15      15.75      11.75
H       4.82      13.32      11.62
H       2.18      15.41       7.94
H       7.01       0.66       6.88
H       2.78      12.97       7.85
H       0.92       5.86       6.75
H      14.02       5.16       6.95
H      11.99       9.75      13.24
H       9.58       9.64      12.58
H      -1.78       8.57      11.33
H       7.98       7.08       2.04
H      -1.15       3.11       5.36
H       0.13       3.76       6.41
H      -0.61       4.85       3.64
H       0.73       5.43       4.62
H       1.79       3.12       4.53
H       1.56       3.79       2.90
H       0.45       2.56       3.52
H       4.40       5.44      13.47
H       4.09       5.27      18.11
H       3.76      10.63      16.83
H       7.65       7.03       4.53
H       4.59       4.23       6.86
H       4.53       2.94       5.63
H       6.21       5.50       5.48
H       6.19       4.24       4.25
H       3.72       4.67       3.85
H       4.68       6.14       3.58
H       3.75       5.96       5.08
H      11.09       7.12       8.21
H      11.60       5.31      10.20
H      12.17       4.00       9.13
H       4.23       9.76      14.76
H       9.44       5.41       8.96
H       9.99       4.12       7.87
H      10.15       2.54       9.86
H       8.51       3.18       9.66
H       9.57       3.84      10.92
H       5.31      10.44       1.76
H       4.89      10.30       4.23
H       5.39       2.78      11.06
H      -0.36       8.01      10.22
H       6.16       0.39      11.10
C       4.59       7.76      13.06
C      13.22       6.38       8.48
C      14.25       5.89       7.72
C       5.97       8.55       5.98
C      -2.28       6.28       7.95
C      -1.99       7.12       9.06
C      -1.21       5.78       7.14
C       0.10       6.17       7.39
C      -0.64       7.41       9.36
C       6.25       8.66       4.52
C       5.58       9.62       3.74
C      10.36       9.22      11.95
C       5.80       9.69       2.38
C       6.67       8.76       1.77
C       7.32       7.79       2.54
C       5.56       4.53       9.10
C       7.13       7.76       3.91
C       4.13       6.27      16.52
C       4.26       6.35      15.11
C       3.94       7.46      17.29
C       4.33       7.63      14.51
C       4.17       8.80      15.27
C      10.97       8.14       9.84
C       3.94       8.74      16.63
C       3.84      13.01       9.73
C       3.09      13.59       8.69
C       2.76      14.94       8.74
C       4.22      11.57       9.66
C       3.15      15.72       9.84
C       3.87      15.13      10.89
C       4.24      13.79      10.82
C       6.19       0.98      10.18
C       5.76       2.30      10.15
C      12.34       8.02      10.26
C       6.67       0.40       9.00
C       5.83       3.07       8.98
C       6.27       2.47       7.78
C       6.68       1.13       7.80
C       1.78       7.35       8.82
C       8.54       8.53      10.40
C       9.99       8.64      10.72
C       0.37       6.97       8.52
C      11.69       9.27      12.31
C      -0.58       4.02       5.61
C      12.68       8.69      11.49
C       0.14       4.54       4.38
C       1.04       3.44       3.80
C       5.16       3.74       6.06
C       5.57       4.75       5.00
C       4.36       5.41       4.35
C      11.50       4.87       9.20
C      10.06       4.51       8.90
C       9.55       3.46       9.89
C      13.41       7.37       9.52
C      -3.09       7.63       9.86
C      -2.82       8.38      11.04
C      -3.82       8.83      11.85
N       6.91       8.74       0.38
N       3.75       7.48      18.65
N       2.82      17.08       9.98
N       7.10      -0.93       8.88
O       5.14       8.12       9.49
O       2.21       7.08       9.99
O       7.75       9.38      10.95
O       2.44       7.90       7.88
O       8.17       7.55       9.67
O      -1.58       4.92       6.14
O       4.37       5.18      14.43
O       4.16       5.07      17.10
O       3.73       9.84      17.41
O       6.36       3.12       6.58
O      10.58       7.90       8.57
O       6.34       5.31       8.45
O      11.96       5.85       8.21
O       5.08      11.16      10.50
O       4.44       6.69      12.33
O       4.97       9.21       6.43
O       4.93       8.90      12.60
O       6.74       7.79       6.66
O       4.61       4.89       9.87
O       3.65      10.87       8.75
