96

Zn       3.41       5.33       8.07
Zn       6.19       5.34       8.06
H       4.49       7.47       1.19
H       1.25       7.35       8.70
H       8.36       3.87       9.55
H       1.22       3.82       9.52
H       8.38       4.86       6.05
H       1.24       4.90       6.04
H       8.37       6.59       6.38
H       1.23       6.62       6.43
H       8.34       3.28       7.89
H       1.20       3.27       7.84
H       4.51       7.30      14.92
H       6.75       6.34       1.20
H       6.78       6.15      14.92
H       6.87       4.39      14.94
H       3.04       6.33      14.92
H       6.87       4.58       1.21
H       3.01       6.49       1.19
H       3.18       3.80      14.93
H       4.75       3.00      14.93
H       3.17       3.96       1.20
H       4.74       3.17       1.20
H       2.71       9.78       8.58
H       2.63       1.26       8.11
H       6.71       9.40       7.08
H       2.98       9.56       6.86
H       5.36       9.69       5.98
H       3.34       1.01       6.52
H       5.79       1.14       6.15
H       2.58       2.24      12.64
H       1.93       0.61      12.41
H       2.93       0.97      13.84
H       4.38      10.55      12.16
H       4.91       1.37      12.37
H       6.88       0.86       7.49
H       3.67       2.13      10.35
H       3.00       0.51      10.14
H       8.88       1.93      11.22
H       7.64       2.19      12.46
H       8.79       0.84      12.61
H       6.56      -0.00      11.84
H       7.86      10.56      10.61
H       7.06       1.60       9.28
H       6.11       2.30      10.57
H       4.71       9.48      10.23
H       6.32       9.62       9.54
H       8.36       6.21      10.00
H       1.22       6.17      10.02
H       8.38       7.38       8.67
C       4.77       7.92       8.08
C       5.87       0.64       7.12
C       5.28       9.96       9.42
C       4.78       9.44       8.06
C       4.81       1.22       8.08
C       4.81       5.26      10.68
C       5.09       0.69       9.55
C       8.78       6.42       9.01
C       0.82       6.40       9.03
C       8.77       4.04       8.55
C       0.80       4.03       8.53
C       4.19       4.03       0.81
C       8.79       5.64       6.72
C       0.82       5.64       6.72
C       4.84       2.75       8.04
C       4.78       5.35       5.45
C       4.06       6.38      15.32
C       6.31       5.25      15.33
C       6.29       5.42       0.81
C       4.04       6.54       0.80
C       4.79       5.34       4.01
C       4.86       5.16      14.79
C       4.20       3.87      15.33
C       4.84       5.33       1.34
C       3.90       1.06      10.48
C       4.06       0.79      11.98
C       2.81       1.17      12.76
C       6.39       1.33      10.11
C       7.21       0.52      11.13
C       8.18       1.42      11.90
C       4.82       5.34       2.79
C       4.85       5.17      13.34
C       4.83       5.19      12.12
C       3.39      10.03       7.76
C       5.76       9.94       6.97
C       3.43       0.73       7.58
N       8.27       5.37       8.09
N       1.32       5.35       8.09
O       3.68       7.32       7.79
O       5.86       7.34       8.38
O       3.71       5.59      10.13
O       5.91       4.99      10.09
O       3.77       3.36       8.37
O       5.93       3.33       7.71
O       3.69       5.02       6.02
O       5.86       5.68       6.03
