106

Zn      10.41       7.86       3.59
Zn       8.81       5.07       3.59
Zn      10.40       6.02       6.22
Zn      12.02       5.08       3.61
Zn      31.22      16.18      13.42
Zn      32.82      18.97      13.42
Zn      31.23      18.03      10.79
Zn      29.61      18.96      13.40
H      12.55       1.46       1.04
H      10.41      11.79       5.72
H      13.27       4.35       9.22
H       5.41       6.44       1.04
H      15.41       6.44       1.04
H       5.41       3.12       5.72
H      29.08      22.58      15.97
H      31.22      12.25      11.29
H      28.35      19.69       7.79
H      36.22      17.61      15.97
H      26.22      17.60      15.97
H      36.22      20.92      11.29
C      11.52       1.16       0.83
C      10.41      11.50       6.77
C      14.04       3.91       8.59
C       5.66       7.47       0.82
C      15.16       7.47       0.83
C       5.66       3.26       6.77
C      10.40       8.98       6.31
C      10.41      10.17       7.17
C      10.44       3.05       2.17
C      10.43       1.86       1.32
C      12.94       4.54       6.37
C      13.99       3.94       7.21
C       7.84       7.46       2.16
C       6.81       8.07       1.31
C      12.98       7.46       2.16
C      14.01       8.07       1.32
C       7.84       4.52       6.32
C       6.80       3.93       7.18
C      31.22      11.68       9.12
C      11.11       0.06       0.05
C      26.42      20.81       7.98
C      36.72      15.66      16.96
C      25.72      15.66      16.96
C      36.72      21.21       9.13
C      30.11      22.88      16.18
C      31.22      12.54      10.24
C      27.58      20.13       8.42
C      35.97      16.57      16.19
C      26.47      16.57      16.18
C      35.97      20.78      10.24
C      31.22      15.06      10.70
C      31.22      13.87       9.84
C      31.18      20.99      14.84
C      31.20      22.18      15.69
C      28.68      19.50      10.64
C      27.64      20.10       9.80
C      33.79      16.58      14.85
C      34.82      15.97      15.70
C      28.65      16.58      14.85
C      27.62      15.97      15.70
C      33.79      19.52      10.69
C      34.82      20.11       9.83
C      10.41      12.36       7.89
C      30.52      23.98      16.96
C      15.20       3.24       9.03
C       4.91       8.38       0.05
C      15.90       8.38       0.05
C       4.91       2.83       7.88
S      10.41       9.97       8.90
S       8.90       1.18       0.83
S      15.34       3.16       6.44
S       6.98       9.74       0.83
S      13.83       9.74       0.83
S       6.98       4.03       8.90
S      31.22      14.07       8.11
S      32.73      22.86      16.18
S      26.29      20.88      10.57
S      34.65      14.30      16.18
S      27.79      14.30      16.18
S      34.65      20.01       8.11
O      10.41       6.01       4.25
O      10.41       9.18       5.05
O       9.30       3.52       2.49
O      10.40       7.85       6.91
O      11.59       3.51       2.50
O      11.97       5.11       6.98
O       7.67       6.24       2.48
O      13.11       4.45       5.11
O       8.82       8.21       2.49
O      13.15       6.24       2.50
O       7.67       4.42       5.05
O      11.99       8.21       2.49
O       8.81       5.10       6.92
O      31.22      18.03      12.76
O      31.22      14.86      11.96
O      32.33      20.52      14.52
O      31.23      16.19      10.10
O      30.04      20.53      14.51
O      29.66      18.93      10.03
O      33.96      17.81      14.53
O      28.52      19.59      11.90
O      32.81      15.83      14.52
O      28.47      17.80      14.51
O      33.96      19.63      11.96
O      29.63      15.83      14.52
O      32.82      18.94      10.09
