142

Zn      -4.51      12.95      11.10
Zn      12.44      -1.57       8.81
Zn      11.83       1.57       8.81
Zn      -3.90       9.81      11.10
Zn      -2.63      11.64       8.81
Zn      10.56      -0.26      11.10
Zn      13.71       0.26      11.10
Zn      -5.78      11.12       8.81
H      15.60      -4.24       8.42
H      12.53      -2.11       4.69
H      17.31      -1.78      11.49
H      -9.39      13.16       8.42
H      -2.09      11.74       4.69
H      10.02      -0.36      15.22
H       8.67       4.24       8.42
H      -0.75       7.14      11.49
H      -7.67      15.62      11.49
H      -3.81       9.27      15.22
H      11.74       2.11       4.69
H       6.95       1.78      11.49
H       0.97       9.61       8.42
H      -6.32      11.02       4.69
H      14.25       0.36      15.22
H      -4.61      13.49      15.22
H       9.23      17.09       8.42
H      -1.30      -5.71      11.50
H      -3.80       9.26      17.72
H      11.73       2.12       2.19
H       4.90       3.20      11.50
H       3.03       8.18       8.42
H      17.93      11.02       2.19
H     -10.01       0.36      17.72
H       3.80      -9.26      17.72
H       4.12      20.64       2.19
H      -4.90      -3.20      11.50
H      12.83      14.58       8.42
H      -2.08      11.74       2.19
H      10.01      -0.36      17.72
H       6.63       5.68       8.42
H       1.30       5.71      11.50
C      18.64      -4.53       9.96
C      12.13      -0.00       2.03
C     -10.61      14.81       9.09
C      -3.01      11.58       2.74
C      10.93      -0.20      17.17
C       6.70       4.82       9.09
C       1.23       6.56      10.83
C      16.43      -4.03       9.09
C      -8.50      15.41      10.82
C      -3.98      10.19      15.78
C      11.91       1.19       4.13
C       6.87       2.63      10.82
C       1.06       8.75       9.09
C      -5.40      11.18       4.13
C      13.33       0.20      15.78
C      -4.43      12.57      15.78
C      12.36      -1.19       4.13
C      17.40      -2.63      10.82
C      -9.47      14.01       9.09
C      -3.01      11.58       4.13
C      10.94      -0.20      15.78
C       7.84       4.03       9.09
C     -10.72      15.92       9.96
C       0.09       7.36      10.82
C      -4.21      11.38       2.03
C      16.33      -2.93       9.96
C      -8.41      14.31       9.96
C      -4.21      11.38      15.08
C      12.13       0.00      17.89
C      12.13      -0.00       4.84
C       7.93       2.93       9.96
C      -0.01       8.46       9.96
C      -4.21      11.38       4.84
C      12.13       0.00      15.08
C       5.63       4.53       9.96
C       2.30       6.85       9.96
C      19.80      -5.34       9.96
C     -11.88      16.72       9.96
C      -4.21      11.38      19.30
C      12.13       0.00       0.61
C       4.47       5.34       9.96
C       3.46       6.04       9.96
C      -4.21      11.38       0.61
C      12.13       0.00      19.30
C      -4.21      11.38      17.89
C      -1.33      15.52       9.96
C       9.25      -4.13       9.96
C      15.01       4.13       9.96
C      -7.09       7.25       9.96
C      -0.63      16.52       9.96
C       8.56      -5.14       9.96
C      15.71       5.14       9.96
C      -7.78       6.24       9.96
C      -6.26       8.43       9.96
C      14.19       2.95       9.96
C      10.08      -2.95       9.96
C      -2.15      14.33       9.96
C      -4.21      11.38      13.59
C      12.13       0.00       6.33
C       9.16       2.07       9.96
C      -1.23       9.31       9.96
C      -4.21      11.38       6.33
C      12.13       0.00      13.59
C      15.11      -2.07       9.96
C      -7.18      13.46       9.96
C      17.57      -4.82       9.09
C      -9.64      16.20      10.83
C      -3.98      10.19      17.17
C      11.91       1.20       2.74
C       5.73       3.42      10.83
C       2.20       7.96       9.09
C      -5.41      11.18       2.74
C      13.33       0.20      17.17
C      -4.43      12.58      17.17
C      12.36      -1.20       2.74
C      18.54      -3.42      10.83
O      -4.21      11.38       9.96
O      13.21       2.96       9.15
O       9.73      -2.03      10.77
O      -1.81      13.41       9.15
O      -6.61       9.35       9.15
O      14.53       2.03      10.77
O      11.06      -2.96       9.15
O      -3.14      14.34      10.77
O      -5.28       8.43      10.77
O      12.13       0.00       9.96
O      -4.00      10.26      13.00
O      11.93       1.12       6.91
O       9.17       1.08      10.77
O      -1.25      10.30       9.15
O      -5.33      11.19       6.91
O      13.26       0.20      13.00
O      14.18      -2.40       9.15
O      -6.25      13.78      10.77
O      15.09      -1.08      10.77
O      -7.17      12.47       9.15
O      -3.08      11.58       6.91
O      11.01      -0.20      13.00
O      10.09       2.40       9.15
O      -2.16       8.98      10.77
O      -4.41      12.50      13.00
O      12.34      -1.12       6.91
