222

Al       8.77       2.98      21.10
Al       5.56       3.10      21.10
Al       7.06       5.70      21.15
Al       1.90       8.93       7.07
Al      -1.32       8.76       7.06
Al       0.21       6.18       7.08
H       2.68       4.06       0.92
H       7.93       4.71      14.78
H       5.37       4.65      14.92
H       5.76       1.92      15.18
H       2.99       3.91      15.28
H       8.26       7.24      14.67
H       8.33       1.55      14.77
H      -2.85       8.02      13.28
H       1.29       5.31      13.42
H       2.04      10.77      13.35
H       3.72       3.83      26.99
H       8.99       7.37       1.24
H       8.20       6.83      27.30
H       8.53       1.35      27.09
H      -2.34       7.87       1.13
H       1.08       5.85       0.83
H       1.09       9.85       1.02
H       5.79       6.35      14.93
H       9.41       3.76      14.61
H       4.81       0.46      15.00
H      -2.00       4.43      13.08
H       3.63       8.23      13.16
H       8.63       0.31       1.07
H      -1.61      10.25      13.54
H       2.22       7.49      15.63
H      -1.76       6.43      15.31
H       0.85       9.85      15.29
H       8.08       5.61      12.63
H       4.90       4.74      12.66
H       6.59       1.84      12.97
H       5.79       7.52      12.98
H       6.92       7.10      10.86
H       5.17       7.33      10.61
H      -3.27       7.95      27.17
H       5.85       5.69      10.66
H       9.70       3.17      12.39
H       8.47       2.71      10.48
H       9.13       4.33      10.14
H       7.47       4.16      10.74
H       4.10       0.33      12.66
H       3.61       1.99      11.04
H       5.11       1.20      10.48
H       5.18       2.75      11.35
H      11.52       3.51      15.16
H       1.70       5.13      26.87
H      -0.53       3.57      17.02
H      -2.13       4.12      17.58
H      -0.85       5.30      17.16
H       4.95       8.48      15.27
H       4.33       9.97      17.03
H       4.21       8.32      17.69
H       2.76       9.19      17.13
H      -2.02       9.93      15.85
H      -1.51       8.48      17.61
H      -0.46       9.89      17.93
H       1.60      10.76      27.03
H       0.20       8.45      17.12
H       1.94       7.79      13.36
H      -1.27       6.03      13.05
H      -0.14       9.34      13.19
H      10.78       2.07      21.90
H       3.79      10.04       6.24
C       6.86       1.54      22.98
C       8.98       5.04      12.90
C       4.77       5.73      13.11
C       5.98       0.96      13.24
C       2.59       6.29      10.31
C      -2.64       6.36      10.11
C      -0.02      10.85      10.28
C       9.26       5.62      17.82
C       4.36       5.54      18.02
C       6.88       0.83      18.00
C       3.73       5.96      15.47
C       4.88       5.23      22.92
C       9.79       5.80      15.22
C       6.89       0.06      15.46
C      10.22       6.01      12.63
C       3.25       6.12      12.88
C       0.03      11.50      12.85
C       2.36       5.05      13.55
C      -3.75       7.38      13.26
C       1.47      11.72      13.36
C       9.36       7.18      14.67
C       2.66       4.94      15.05
C       9.03       5.30      23.05
C       8.23       0.46      14.79
C       2.92       6.20      11.47
C      -3.06       6.18      11.23
C       0.01      11.20      11.44
C       9.50       5.71      16.64
C       4.04       5.78      16.87
C       6.91       0.40      16.86
C       6.91       1.52      19.26
C       4.91       5.20      19.30
C       8.94       5.32      19.19
C      -0.06      10.34       5.20
C       0.02      10.27       8.97
C      -2.00       6.68       8.86
C       2.16       6.58       8.97
C       4.13       4.71      27.49
C       8.79       6.02      27.77
C       7.55       1.28      27.59
C      -2.25       6.89       0.65
C       1.91       6.42       0.39
C       0.19      10.27       0.54
C       2.16       6.12      27.05
C      -1.93       6.59       5.26
C      -2.65       7.05      27.32
C       0.51      10.68      27.20
C       9.06       6.28       1.09
C       3.58       4.68       0.81
C       7.65       0.79       0.92
C       2.62       6.34       3.79
C      -2.50       6.21       4.00
C      -0.16      10.95       3.90
C       9.52       5.61      24.37
C       4.26       5.59      24.17
C       2.16       6.64       5.12
C       6.77       0.88      24.26
C       3.67       6.00      26.72
C      10.11       5.81      26.96
C       6.67       0.23      26.83
C      -3.12       5.86       1.44
C       3.20       6.14       1.20
C      -0.24      11.55       1.31
C       4.32       7.12       0.73
C      10.80       4.43       0.90
C       5.17       0.20       0.80
C       3.19       7.41      15.12
C      10.82       4.52      27.48
C       4.42       7.23      27.31
C       5.21       0.29      27.38
C       2.93       6.26       2.62
C      -2.82       5.99       2.85
C      -0.23      11.28       2.73
C       9.82       5.72      25.54
C       3.95       5.82      25.31
C       6.71       0.52      25.42
C       5.00       5.64      14.64
C      -2.30       5.55      14.92
C       8.97       4.75      14.42
C       5.78       0.90      14.77
C      -2.16       5.48      13.38
C       2.97       7.46      13.58
C      -0.51      10.27      13.64
C       5.92       6.70      11.10
C       8.49       3.76      10.82
C       4.65       1.78      11.29
C      -1.30       4.34      16.89
C       3.82       9.01      16.93
C      -0.13      10.33      15.13
C      -0.69       9.09      17.21
N       5.79       6.59      12.55
N       8.90       3.78      12.22
N       4.69       1.15      12.61
N      -1.68       4.38      15.47
N       3.97       8.54      15.55
N      -1.08       9.55      15.88
O       9.38       4.19      22.57
O       1.09      10.07       5.63
O      -2.22       7.75       5.70
O       1.41       5.76       5.70
O       9.30       4.20      19.64
O       5.76       1.81      19.79
O       5.72       6.04      19.82
O       2.50       7.69       8.49
O      -1.12      10.02       8.41
O      -1.12       5.87       8.42
O       8.04       1.83      19.72
O       5.73       1.81      22.42
O       4.60       4.06      19.79
O       8.25       6.21      19.83
O       1.16      10.02       8.49
O      -2.33       7.79       8.32
O       1.42       5.69       8.38
O       7.11       3.94      21.13
O       0.25       7.94       7.05
O       5.72       6.06      22.44
O       2.49       7.76       5.59
O      -1.19      10.06       5.77
O      -1.12       5.76       5.80
O       8.00       1.84      22.56
O       4.59       4.09      22.42
O       8.25       6.16      22.51
O      10.29       2.13      21.07
O       3.40       9.82       7.10
F       1.48       5.17      15.78
F       8.14       5.70       1.94
F       4.54       4.17       1.66
F       7.60       1.90       1.74
F       1.58       7.77       0.48
F      -0.92       6.51       0.71
F      -0.81       9.32       0.65
F       8.04       4.87      27.72
F       5.50       4.63      27.45
F       6.95       2.52      27.49
F       5.73       7.28      26.88
F      -3.82       8.23      15.50
F      10.20       3.39      27.03
F       4.54       1.39      26.92
F      -1.62       3.97       1.33
F       4.10       8.39       1.20
F      -2.63      11.21       1.28
F       3.83       8.38      26.85
F      -1.53       4.48      27.00
F      -2.29      11.00      26.94
F       9.86       3.56       1.38
F       5.53       6.71       1.21
F       2.52      11.77      15.52
F       4.91       1.46       1.26
F       8.91       8.06      12.49
F       2.56       3.80      12.94
F       8.98       0.80      12.53
F       1.52       7.02      26.22
F      -1.56       7.16      26.48
F       0.05       9.66      26.40
