90

Zn       8.20       8.50      10.99
Zn       8.43       6.34       8.59
Zn       6.10       8.62       8.64
Zn       6.11       6.13      10.72
H       8.49       8.53      15.07
H      -0.25       4.80       8.95
H       6.37       9.61       4.61
H      14.67      10.17      10.45
H       2.23       5.02       9.04
H       1.87       9.21       9.97
H       8.59       5.93       4.43
H       7.36       8.61      19.46
H       5.90       4.93      17.30
H       5.87       5.14      14.81
H       6.85       5.58      19.48
H       8.65       6.10       1.94
H       8.51       8.35      17.55
H       9.52       3.52      13.85
H       9.20       1.92      14.53
H      10.84       2.35      14.01
H       9.77       0.86      12.29
H      10.06       2.46      11.61
H       7.69       3.12      12.05
H       7.37       1.57      12.80
H       6.46      10.21       1.01
H       6.12      10.86       2.55
H       7.30       2.32       7.37
H       7.55      14.83      12.64
H       7.05      -0.14       7.12
H       7.38      12.39      12.36
H       6.69      12.86       8.15
H      12.56       5.83       9.19
H      12.19       9.90      10.52
C       7.48       3.75       9.56
C       7.10       6.56      19.06
C       7.60       8.03       0.40
C       6.97      11.00      10.08
C       7.47       7.76       4.66
C       7.51       2.25       9.52
C       7.02      12.48      10.23
C       7.38      14.42      11.65
C       7.27      13.05      11.50
C       6.88      13.31       9.13
C       7.03      14.71       9.24
C       7.17       6.65      17.60
C       7.53       0.05      10.53
C       7.64       1.47      10.67
C       7.34       1.67       8.24
C      10.76       7.70       9.84
C       7.21       0.31       8.10
C      12.24       7.85       9.84
C       2.18       7.14       9.49
C       0.21       5.76       9.19
C       1.58       5.88       9.23
C       1.39       8.25       9.76
C       6.46       5.72      16.81
C      -0.02       8.13       9.81
C      14.44       6.87       9.48
C      13.03       6.77       9.48
C      12.84       9.08      10.22
C       3.67       7.24       9.53
C      14.21       9.22      10.18
C       7.39       7.66       6.14
C       7.15       7.01      13.31
C       7.16       6.86      14.79
C       7.91       7.76      15.57
C       6.44       5.84      15.42
C       7.91       7.66      16.95
C       7.97       2.06      12.02
C       9.46       1.92      12.37
C       9.78       2.46      13.76
C       6.93       8.97       2.61
C       6.88       8.85       4.01
C       8.11       6.76       3.91
C       8.14       6.86       2.53
C       7.56       7.95       1.85
N       6.28      10.03       2.00
O       7.21       7.39       9.70
O       8.18       6.82       6.70
O       6.27       6.35      12.66
O       6.53       8.40       6.73
O       8.02       7.79      12.81
O      10.09       8.58      10.48
O       4.28       6.24      10.03
O       8.20       4.38       8.71
O       6.47      10.53       9.00
O       6.70       4.28      10.42
O       7.46      10.32      11.04
O      10.27       6.71       9.20
O       4.20       8.31       9.08
