192

Al       8.48       2.83       7.14
Al       5.29       2.85       7.13
Al       6.69       5.49       7.15
Al      15.11       8.48      21.16
Al      11.91       8.58      21.20
Al      13.23       5.89      21.22
H      14.57       4.70      11.43
H      16.96      11.30      12.35
H      17.06       9.51      12.24
H      16.83      10.30      13.82
H       3.91       3.26       2.30
H       1.69       2.37       1.49
H       3.02       1.19       1.69
H       2.59       1.81       0.07
H       9.83       7.86      11.70
H       8.02       9.30      12.51
H       9.56      10.20      12.37
H      14.23       2.38      12.15
H       8.99       9.61      13.96
H       8.26       1.67       2.24
H      10.13       0.22       1.39
H      10.49       1.97       1.58
H      10.25       1.31      28.27
H       8.18       6.80      25.53
H       5.81       6.92      25.93
H       6.08       6.26      27.57
H       6.35       5.23      26.14
H      14.16       4.40      16.30
H      12.68       3.27      12.06
H      11.95       4.55      15.42
H      12.61       5.21      13.90
H      12.71       6.17      15.40
H       8.40       0.94      25.70
H       9.63       2.95      26.13
H       8.88       3.04      27.75
H       7.88       3.28      26.30
H       9.89       8.24      16.58
H      11.08      10.11      15.70
H      11.31       9.22      14.17
H      13.49       3.01      13.63
H      12.12       8.66      15.65
H       3.22       3.62      25.78
H       4.39       1.58      26.16
H       4.85       2.15      27.78
H       5.54       2.93      26.34
H      15.24      10.18      16.48
H      16.28       8.22      15.66
H      15.45       8.42      14.10
H      14.51       8.01      15.56
H       7.36       6.51       2.07
H       7.75       8.82       1.17
H       6.04       8.31       1.35
H       6.94       8.30      28.04
H      14.85      10.33      11.59
H      10.57       2.11       6.37
H      17.05       9.53      21.96
C       6.62       1.31       8.97
C      13.38      10.08      19.35
C      11.11       6.44      22.99
C      15.21       6.04      19.33
C       3.86       5.30      10.12
C       9.03       5.48       3.86
C       6.62       0.63      10.24
C       4.04       5.22       4.01
C       9.19       5.56      10.32
C       6.56       0.77       3.94
C      10.48       6.14      24.24
C       4.57       4.88       5.29
C      15.71       5.64      18.04
C      13.26      10.72      24.34
C      10.35       6.24      18.21
C      15.73       5.86      24.43
C      13.36      10.83      18.13
C      15.33       4.96      13.26
C       8.51       6.20       0.47
C      14.22      10.87      13.41
C       3.50       4.36       0.69
C       9.69       7.03      13.51
C       8.71       5.16       9.03
C       7.49       0.81       0.61
C       8.79       6.25      27.35
C      15.19       4.95      14.68
C       7.57       0.66      27.49
C       9.78       7.12      14.93
C       3.43       4.48      27.57
C      14.29      10.79      14.83
C       4.38       5.92      14.91
C      11.06       5.26      27.64
C       5.81       0.93      15.01
C       6.67       1.37       5.24
C      16.18       6.93      27.81
C       9.38       4.67      15.10
C      12.13      10.55      27.71
C      10.75       5.15       0.72
C       4.47       6.04      13.53
C      12.01      10.74       0.79
C       9.38       4.57      13.72
C      16.32       6.83       0.88
C       5.68       0.92      13.63
C       3.42       5.54      12.70
C       4.53       4.99       8.90
C       9.53       5.62       1.28
C       6.62       0.21      12.83
C       3.51       5.56       1.46
C       9.53       5.74      12.92
C       6.46       0.19       1.39
C      10.04       5.80      26.81
C       3.18       5.41      15.48
C      13.12      11.20      26.92
C       9.64       5.93      15.71
C      16.24       5.76      27.01
C       8.63       5.20       5.21
C       6.82       0.12      15.61
C      16.04       5.50      16.87
C      10.26       5.94      25.43
C      13.34      11.26      16.99
C      16.00       5.83      25.62
C       9.95       6.03      17.08
C      13.16      10.97      25.53
C       9.30       5.55       2.67
C       3.62       5.45      11.31
C       6.47       0.44       2.77
C      13.27      10.08      23.05
C       9.39       5.65      11.52
C       3.77       5.44       2.84
C       6.60       0.38      11.43
C      13.65       3.22      12.57
C       6.98       8.11       0.82
C      16.57      10.35      12.76
C       2.69       2.07       1.13
C       9.05       9.38      12.89
C       9.88       1.24       1.04
C       6.45       6.26      26.54
C      11.04       6.58      19.42
C      12.76       5.14      14.99
C       8.73       2.71      26.71
C      11.19       9.12      15.25
C       4.63       2.46      26.76
C      15.37       8.59      15.18
C      15.26       6.22      23.12
I       5.91       6.52      16.21
I       9.07       2.76      12.73
I      16.18       8.49       2.16
I       4.20       2.03      12.65
I      12.83       4.63      26.71
I       4.55       2.01      16.28
I      15.72       8.74      26.85
I       9.11       3.02      16.37
I      10.73       9.35      26.74
I      12.24       4.48       2.03
I       6.14       6.85      12.58
I      10.68       9.74       2.08
N      14.35       4.49      12.40
N      10.01       8.32      15.57
N       3.49       3.38      26.74
N      15.24      10.01      15.47
N       7.37       6.72       1.07
N      15.12      10.24      12.57
N       3.68       3.14       1.32
N       9.79       8.13      12.68
N       8.47       1.56       1.25
N       7.83       6.74      26.48
N      14.03       4.49      15.29
N       8.49       1.27      26.66
O       8.98       3.98       8.66
O      15.67       7.10      19.84
O      12.10       9.75      22.61
O      11.77       5.69      19.99
O       7.74       1.54       8.42
O       4.37       3.68       5.70
O       8.00       6.01       8.37
O       7.81       1.81       5.57
O       4.22       3.89       8.31
O       7.76       6.01       5.71
O      14.38       9.83      22.50
O       5.58       1.46       5.93
O      10.92       7.80      19.81
O      14.51       5.38      22.49
O      14.49       9.55      19.65
O      10.84       7.55      22.42
O      14.28       5.28      19.83
O       6.81       3.73       7.13
O      13.40       7.65      21.20
O       5.45       5.80       8.53
O       9.11       4.18       5.77
O       5.46       1.67       8.55
O       5.25       5.77       5.92
O      15.58       7.38      22.72
O      12.28       9.96      20.00
O      11.98       5.59      22.59
O      10.02       1.99       7.15
O      16.69       9.24      21.11
