294

Zn       6.06      10.34       5.19
Zn       1.78       8.78       6.36
Zn      -2.50       8.55       4.42
Zn      -1.77      -1.12      10.78
Zn       2.50       0.45       9.61
Zn       6.78       0.68      11.55
H      -4.97      12.72       5.49
H      -1.96      12.74       4.86
H      -0.17      -1.07       6.66
H       2.05      -0.03       6.23
H       3.89      -1.39       5.25
H      -0.78      14.65       4.71
H       9.18      -4.15       7.81
H       4.15      14.37       4.83
H       5.87      -0.01       4.81
H       6.67       1.27       6.77
H       8.38       0.25       8.32
H       9.26      -1.99       7.86
H       7.24       9.21       2.73
H       6.57       8.76       0.40
H       2.56       9.98       1.49
H       3.40      10.37       3.76
H      -1.20      -3.16       7.03
H       5.95      -1.99       3.72
H       3.59       7.32       8.26
H       6.60       7.87       8.60
H       4.11       3.99      11.71
H       6.32       3.85      12.83
H      -4.66       5.37      12.14
H      -5.05       7.04      10.33
H       0.62       4.53       8.47
H      -0.13       7.08      10.03
H      -2.68       5.06      13.55
H      -1.88       2.73      13.68
H      -0.17       1.89      12.03
H       0.70       3.41      10.31
H       2.96      11.48       6.61
H       2.30      13.72       7.39
H      -1.72      12.16       7.90
H      -0.88      10.00       7.10
H       3.08       4.72       9.71
H      -2.61       7.00      12.39
H      -0.69       7.63       2.21
H       2.32       7.06       2.51
H      -4.45      -2.91      13.57
H      -2.23      -3.81      12.89
H      -0.39      -3.98      14.55
H       3.50       5.97       0.93
H       4.90      -0.37      15.66
H       8.43       6.22       1.11
H       1.60      -5.04      13.58
H       2.39      -3.99      11.49
H       4.10      -2.14      11.59
H       4.99      -1.42      13.77
H      -1.32       6.98       6.63
H      -1.98       5.18       8.18
H       6.83       5.52       6.58
H       7.67       7.30       5.11
H      -5.47      -1.55      15.20
H       1.67      -5.00      15.83
H       9.25      -3.49      10.47
H       6.24      -3.52      11.11
H       4.45      10.30       9.31
H       2.24       9.25       9.74
H       0.39      10.61      10.72
H       5.06      -5.42      11.26
H      -4.90      13.37       8.16
H       0.13      -5.14      11.14
H      -1.59       9.24      11.16
H      -2.39       7.96       9.20
H      -4.10       8.97       7.65
H      -4.98      11.22       8.11
H      -2.96       0.01      13.24
H      -2.29       0.46      15.57
H       1.73      -0.76      14.48
H       0.88      -1.15      12.21
H       5.48      12.38       8.94
H      -1.67      11.21      12.25
H       0.69       1.90       7.71
H      -2.32       1.36       7.37
H       0.17       5.23       4.26
H      -2.04       5.38       3.14
H       8.94       3.85       3.83
H       9.34       2.18       5.64
H       3.66       4.70       7.50
H       4.41       2.15       5.94
H       6.96       4.16       2.41
H       6.16       6.49       2.29
H       4.46       7.33       3.94
H       3.58       5.81       5.66
H       1.32      -2.25       9.36
H       1.98      -4.50       8.58
H       6.00      -2.94       8.07
H       5.16      -0.78       8.87
H       1.20       4.51       6.25
H       6.89       2.23       3.58
H       4.97       1.60      13.76
H       1.96       2.16      13.46
H       8.73      12.13       2.40
H       6.51      13.03       3.08
H       4.67      13.20       1.42
H       0.78       3.25      15.04
H      -0.62       9.60       0.31
H      -4.15       3.01      14.86
H       2.68      14.27       2.39
H       1.89      13.21       4.48
H       0.18      11.37       4.38
H      -0.71      10.64       2.20
H       5.60       2.24       9.34
H       6.26       4.04       7.78
H      -2.55       3.70       9.39
H      -3.39       1.92      10.86
H       9.75      10.77       0.77
H       2.61      14.22       0.14
C      -3.80      10.92       5.03
C      -3.97      12.36       5.27
C      -2.91      13.20       5.15
C      -2.82      14.63       5.38
C       0.41      -3.02       5.94
C       0.64      -1.66       6.23
C       1.88      -1.08       5.97
C       2.92      -1.84       5.42
C      -1.58      15.26       5.12
C       5.35      12.62       6.50
C       4.82      13.96       6.78
C       4.26      14.76       5.84
C       8.04      -2.34       6.11
C       7.09      -1.74       5.25
C       6.60      -0.46       5.49
C       7.05       0.26       6.60
C       8.00      -0.30       7.46
C       8.49      -1.58       7.21
C       6.21       9.36       2.40
C       5.82       9.11       1.09
C       4.49       9.34       0.70
C       3.61       9.79       1.69
C       4.07      10.02       2.98
C       4.76       8.62       6.94
C       4.59       7.70       8.07
C       5.65       7.38       8.86
C       5.73       6.47       9.98
C       4.69       5.59      10.39
C       4.92       4.66      11.41
C       6.16       4.59      12.05
C      -5.64       5.45      11.66
C       6.98       6.38      10.65
C       1.07       6.50       7.67
C       0.54       5.59       8.70
C      -0.02       6.00       9.86
C      -0.51       5.10      10.89
C      -1.46       5.55      11.84
C      -1.95       4.69      12.83
C      -1.50       3.38      12.90
C      -0.55       2.91      11.98
C      -0.07       3.77      10.99
C       1.93      11.68       6.91
C       1.54      12.94       7.35
C       0.22      13.17       7.74
C      -0.67      12.08       7.63
C      -0.21      10.85       7.18
C       0.48       8.12       4.00
C       0.31       7.61       2.63
C       1.37       7.08       1.96
C       1.45       6.57       0.61
C      -3.86      -2.56      15.62
C      -3.64      -2.99      14.30
C      -2.40      -3.50      13.92
C      -1.36      -3.60      14.86
C       2.69       6.03       0.20
C       9.63       8.54       1.79
C       9.09       8.11       0.49
C       8.54       6.90       0.27
C       3.77      -2.76      14.94
C       2.81      -3.80      14.86
C       2.33      -4.23      13.62
C       2.78      -3.63      12.45
C       3.72      -2.61      12.50
C       4.21      -2.18      13.73
C      -2.35       6.62       6.66
C      -2.74       5.61       7.53
C      -4.06       5.16       7.53
C       7.89       5.79       6.65
C       8.35       6.80       5.81
C       8.08      -1.70      10.94
C       8.25      -3.14      10.70
C       7.19      -3.98      10.82
C       7.10      -5.41      10.59
C       3.87      12.24      10.03
C       3.64      10.88       9.74
C       2.40      10.30      10.00
C       1.36      11.07      10.55
C       5.86      -6.04      10.85
C      -1.07      -3.40       9.47
C      -0.53      -4.74       9.19
C       0.02      -5.53      10.13
C      -3.76      11.56       9.86
C      -2.81      10.97      10.72
C      -2.32       9.68      10.48
C      -2.77       8.96       9.37
C      -3.72       9.52       8.51
C      -4.21      10.80       8.76
C      -1.93      -0.14      13.57
C      -1.54       0.11      14.88
C      -0.21      -0.11      15.27
C       0.67      -0.57      14.28
C       0.21      -0.79      12.99
C      -0.48       0.60       9.03
C      -0.31       1.52       7.90
C      -1.37       1.84       7.11
C      -1.45       2.75       5.99
C      -0.41       3.63       5.58
C      -0.64       4.56       4.55
C      -1.88       4.63       3.92
C       9.92       3.77       4.30
C      -2.70       2.85       5.32
C       3.21       2.72       8.30
C       3.74       3.63       7.27
C       4.30       3.22       6.11
C       4.79       4.12       5.08
C       5.74       3.67       4.13
C       6.23       4.53       3.14
C       5.78       5.84       3.07
C       4.83       6.31       3.99
C       4.35       5.46       4.97
C       2.35      -2.46       9.06
C       2.74      -3.72       8.62
C       4.06      -3.95       8.23
C       4.95      -2.86       8.34
C       4.49      -1.63       8.79
C       3.80       1.10      11.97
C       3.97       1.62      13.34
C       2.91       2.14      14.01
C       2.83       2.66      15.36
C       8.15      11.79       0.35
C       7.92      12.21       1.67
C       6.68      12.73       2.05
C       5.64      12.83       1.11
C       1.59       3.19      15.77
C      -5.35       0.68      14.18
C      -4.81       1.11      15.48
C      -4.26       2.32      15.70
C       0.51      11.98       1.03
C       1.47      13.02       1.11
C       1.96      13.45       2.35
C       1.50      12.86       3.52
C       0.56      11.83       3.47
C       0.07      11.41       2.24
C       6.63       2.60       9.31
C       7.02       3.61       8.44
C       8.34       4.06       8.43
C      -3.60       3.43       9.32
C      -4.07       2.43      10.16
N       5.35       9.81       3.34
N       1.07      10.65       6.83
N      -3.21       7.21       5.81
N      -1.07      -0.59      12.63
N       3.21      -1.43       9.14
N       7.49       2.02      10.16
O      -2.61      10.44       4.95
O       8.02      10.15       4.90
O       5.29      12.16       5.29
O       5.85      11.94       7.45
O      -5.06      14.84       6.21
O       2.37      15.96       4.17
O       5.95       8.93       6.56
O       3.74       9.12       6.33
O       1.01       7.78       7.88
O       1.57       6.02       6.61
O       3.50       5.65       9.75
O      -1.90       6.85      11.73
O       1.67       8.29       4.45
O      -0.54       8.40       4.73
O       9.57       7.72       2.79
O      -2.71       9.71       1.90
O      -0.78       7.18       0.01
O       6.65       4.86       0.06
O       6.89      -1.22      11.02
O      -3.74      -0.92      11.07
O      -1.01      -2.94      10.68
O      -1.57      -2.71       8.52
O       9.34      -5.62       9.76
O       1.91      -6.74      11.80
O      -1.67       0.29       9.41
O       0.54       0.10       9.64
O       3.27       1.45       8.09
O       2.71       3.21       9.36
O       0.78       3.58       6.22
O       6.19       2.38       4.24
O       2.61       0.93      11.52
O       4.82       0.83      11.24
O      -5.29       1.50      13.18
O       6.99      -0.48      14.07
O       5.06       2.05      15.96
O      -2.37       4.36      15.91
