228

Zr      10.03      10.02      11.66
Zr       6.48       6.48      11.60
Zr       8.27       8.27       9.13
Zr       8.24       8.23      14.13
Zr       6.49      10.03      11.63
Zr      10.03       6.48      11.63
Zr       1.78      14.74      23.26
Zr      14.71       1.75      23.26
Zr      14.74      14.71      23.25
Zr       1.76       1.78       0.01
Zr       0.01       0.01      20.76
Zr      16.49      16.49       2.50
H       8.27      11.04       9.68
H       5.46       8.24      13.58
H       8.27       5.48       9.65
H      11.03       8.24      13.62
H       0.03      13.71      21.29
H      16.49       2.79      21.30
H      13.71      16.48       1.96
H       2.78       0.01       1.98
H       6.14      14.70      11.70
H      14.70       6.13      11.58
H      14.34       2.16       6.05
H       2.24      14.42      17.21
H       2.07      14.25       6.05
H      14.33       2.15      17.21
H       4.33       4.25      20.21
H      12.26      12.17       3.04
H       2.11       2.21       6.06
H      14.30      14.39      17.20
H       2.14      10.03       0.07
H       6.45       2.12      23.22
C       8.24      12.75      11.71
C       3.76       8.29      11.55
C       8.29       3.76      11.68
C      12.75       8.23      11.59
C      10.57      10.48       8.50
C      10.43      10.52      14.84
C       6.02       5.93      14.76
C       5.98       6.07       8.43
C       5.99      10.46       8.44
C      10.55       6.08       8.44
C      10.42       5.96      14.83
C       6.05      10.51      14.82
C       2.30      14.32      20.08
C      14.21       2.18      20.08
C      14.29       2.27       3.18
C       2.20      14.22       3.18
C       0.04      12.00       0.05
C       4.49       0.02      23.21
C      16.45       4.49       0.07
C      12.00      16.45      23.19
C      14.24      14.30      20.07
C      14.30      14.19       3.15
C       2.18       2.29       3.19
C       2.30       2.22      20.11
C       9.39       1.41      11.69
C       7.16      15.07      11.70
C       8.31       2.29      11.69
C       8.25      14.22      11.71
C       7.57      16.42      11.69
C       8.97       0.06      11.69
C       1.42       9.39      11.57
C      15.07       7.15      11.57
C       2.29       8.31      11.55
C      14.22       8.24      11.57
C      16.42       7.57      11.57
C       0.07       8.97      11.57
C      11.19       5.47       6.00
C      13.66       2.87       5.59
C      11.27       5.35       7.39
C      13.56       3.02       4.21
C      12.79       3.77       6.25
C      12.05       4.57       5.35
C       5.39      11.10      17.25
C       2.92      13.70      17.68
C       5.32      11.23      15.87
C       3.03      13.57      19.05
C       3.78      12.80      17.01
C       4.52      12.00      17.91
C       5.40      11.11       6.01
C       2.79      13.58       5.59
C       5.27      11.18       7.39
C       2.94      13.48       4.21
C       3.69      12.71       6.25
C       4.50      11.98       5.35
C      11.03       5.32      17.26
C      13.62       2.82      17.68
C      11.15       5.23      15.87
C      13.47       2.92      19.05
C      12.73       3.70      17.02
C      11.94       4.45      17.91
C       4.30       4.21      15.64
C       4.00       3.92      19.23
C       5.28       5.19      15.78
C       3.03       2.94      19.06
C       4.47       4.39      17.98
C       3.83       3.75      16.89
C      12.29      12.21       7.62
C      12.59      12.50       4.03
C      11.31      11.22       7.47
C      13.57      13.46       4.20
C      12.12      12.04       5.28
C      12.75      12.67       6.37
C       5.36       5.43       6.00
C       2.81       2.90       5.59
C       5.25       5.34       7.39
C       2.92       3.02       4.22
C       3.70       3.78       6.25
C       4.47       4.54       5.35
C      11.08      11.14      17.26
C      13.61      13.69      17.67
C      11.16      11.25      15.88
C      13.49      13.57      19.04
C      12.73      12.80      17.01
C      11.96      12.03      17.91
C      15.35       6.84       0.06
C       1.11       9.67       0.06
C      16.43       5.96       0.07
C       0.02      10.53       0.06
C       0.69       8.32       0.06
C      15.78       8.19       0.05
C       9.66      15.35      23.19
C       6.82       1.10      23.21
C      10.54      16.43      23.19
C       5.97       0.01      23.20
C       8.17       0.68      23.21
C       8.31      15.78      23.20
S       6.78       1.45      11.70
S       9.79      15.04      11.70
S       1.46       6.78      11.56
S      15.05       9.78      11.57
S      12.41       4.13       7.89
S      12.42       4.23       3.71
S       4.17      12.44      15.37
S       4.17      12.36      19.55
S       4.04      12.32       7.89
S       4.16      12.34       3.71
S      12.36       4.08      15.38
S      12.27       4.08      19.56
S       5.63       5.54      17.45
S       2.68       2.59      17.40
S      10.96      10.87       5.80
S      13.92      13.82       5.87
S       4.07       4.16       7.89
S       4.11       4.19       3.71
S      12.34      12.43      15.37
S      12.32      12.39      19.55
S       1.47       6.79       0.08
S      14.98       9.71       0.05
S       9.70       1.47      23.20
S       6.79      14.97      23.20
Cl      11.05       1.84      11.67
Cl       1.84      11.05      11.57
Cl      10.20       6.56       5.13
Cl       6.37      10.01      18.13
Cl       6.51      10.15       5.13
Cl       9.96       6.31      18.13
Cl       3.67       3.60      14.17
Cl      12.90      12.83       9.09
Cl       6.41       6.45       5.12
Cl      10.06      10.10      18.15
Cl      13.70       6.42       0.04
Cl      10.08      13.70      23.19
O       9.38      12.17      11.72
O       4.32       7.13      11.54
O       7.14       4.32      11.65
O      12.17       9.38      11.61
O       9.70       9.64       8.07
O       9.58       9.65      15.20
O       6.87       6.79      15.19
O       6.85       6.93       8.06
O       5.70      10.76       9.65
O      10.83       5.77       9.65
O      10.74       5.68      13.61
O       5.76      10.81      13.61
O       9.69       6.95       8.07
O       9.55       6.81      15.20
O       6.90       9.63      15.20
O       6.87       9.60       8.06
O      10.83      10.74       9.72
O       5.69       5.76       9.64
O       5.76       5.67      13.53
O      10.74      10.81      13.62
O      12.18       7.09      11.59
O       7.10      12.17      11.70
O       4.36       9.41      11.56
O       9.42       4.36      11.68
O      10.24       8.24      13.05
O       8.26       6.26      10.21
O       6.25       8.24      13.02
O       8.26      10.25      10.24
O       6.79       8.26      10.59
O       8.25       9.71      12.68
O       8.25       6.77      12.65
O       9.73       8.26      10.61
O       2.58      14.03      21.30
O      13.92       2.45      21.30
O      14.00       2.54       1.97
O       2.49      13.95       1.97
O      15.39      12.57       0.04
O       3.92       1.16      23.22
O       1.11       3.93       0.07
O      12.61      15.32      23.19
O      15.10      15.16      19.67
O      15.15      15.06       3.56
O       1.33       1.42       3.59
O       1.44       1.36      19.70
O      14.02      13.90       1.94
O       2.46       2.57       1.97
O       2.57       2.51      21.32
O      13.97      14.01      21.29
O       1.18      12.58       0.05
O      12.56       1.11      23.21
O      15.32       3.89       0.06
O       3.92      15.38      23.21
O       1.34      15.07       3.58
O       1.44      15.17      19.68
O      15.09       1.35      19.68
O      15.14       1.40       3.58
O       1.99       0.01       1.42
O      14.50      16.48       1.40
O      16.49       2.00      21.86
O       0.02      14.51      21.85
O      15.04      16.49      22.22
O       1.47       0.01      22.23
O      16.48       1.46       1.04
O       0.01      15.02       1.03
