224

Zn       7.45       9.10      15.53
Zn      27.06      10.87      18.23
Zn       8.98      11.94      15.66
Zn      25.39      11.82      15.64
Zn      18.28       7.27       8.83
Zn      16.75       4.46       8.60
Zn      18.58       5.48       6.19
Zn      19.99       4.56       8.91
Zn      16.21      16.41      22.43
Zn      17.68      15.60      25.18
Zn      15.85      18.21      25.06
Zn      14.47      15.31      24.88
Zn      17.62       5.05      31.93
Zn      14.42       5.04      31.82
Zn      24.68      20.01      31.80
Zn      18.42      17.66       1.98
H      23.05       5.93      11.46
H      20.57       9.43      11.46
H      24.64       7.09      13.01
H      11.42      13.57      22.64
H      13.93      14.77      19.37
H       9.82      12.56      21.01
H      13.17       5.64      11.04
H      19.26      14.80      19.71
H      16.26      19.82      19.51
H      29.03      18.49      11.08
H      12.33       1.38       4.91
H      14.35       3.01       1.50
H      14.01       2.49       6.41
H      18.35      14.23       4.85
H       4.84       2.87       1.43
H      22.09      17.90      29.35
H      11.43       3.94      29.14
H      20.38      16.94      27.79
H      13.99       8.67      29.29
H      20.97       3.82      29.33
H      22.68      11.74      12.64
H      22.03      11.16      14.16
H      20.97      11.24      12.72
H      11.78      14.48      16.78
H      12.47      12.87      16.82
H      13.50      14.27      17.22
H      17.31       3.90       2.84
H      16.38       5.36       3.15
H      16.09       4.44       1.65
H      17.10      20.77      27.83
H      18.03      21.08      26.37
H       9.64       4.34      27.82
C       7.44       7.90      18.22
C       9.93      12.48      18.39
C      10.07       9.58      14.26
C      26.90      13.92      14.24
C      24.53       9.50      14.02
C      24.45      12.22      18.42
C      15.66       6.75      10.12
C      16.09       3.95       5.77
C      18.34       8.41       6.11
C      21.22       4.15       6.26
C      20.75       6.97      10.44
C      18.29       2.41      10.06
C      18.85      15.06      22.52
C      18.31      18.08      26.68
C      16.10      19.36      22.35
C      13.23      17.59      26.28
C      13.75      14.84      22.05
C      16.15      13.42      26.44
C      16.06       7.12      30.52
C      22.18      20.44      30.27
C      27.28      20.41      30.48
C      18.41      14.71       2.02
C      12.27       1.46       2.21
C       7.18       1.34       2.06
C      23.51       8.91      13.10
C      21.71       7.63      11.36
C      22.35       9.61      12.67
C      22.86       6.95      11.80
C      21.47       8.93      11.80
C      23.74       7.60      12.65
C      10.96      13.11      19.28
C      12.77      14.23      21.09
C      12.13      13.74      18.78
C      11.61      13.61      21.57
C      13.01      14.29      19.72
C      10.72      13.05      20.66
C      12.37       9.61      13.10
C      13.41       6.66      11.33
C      11.18       9.01      13.48
C      14.58       7.29      10.96
C      12.61       7.51      12.12
C      13.20       8.77      12.32
C      23.27      12.85      20.63
C      20.05      14.42      20.37
C      23.38      12.76      19.25
C      19.96      14.50      21.75
C      21.26      13.82      19.97
C      22.07      13.44      21.06
C       7.36       6.54      20.41
C       7.53       2.95      20.16
C       7.44       6.67      19.03
C       7.45       2.85      21.54
C       7.49       4.30      19.75
C       7.39       5.20      20.84
C      25.81      15.86      12.93
C      28.01      18.19      11.30
C      26.89      15.12      13.40
C      26.92      18.91      10.85
C      27.59      17.07      12.05
C      26.19      16.97      12.15
C      15.13       3.36       4.80
C      13.26       2.12       3.12
C      15.25       3.53       3.39
C      13.14       1.97       4.50
C      14.30       2.90       2.58
C      14.07       2.59       5.33
C      18.36       9.77       3.92
C      18.35      13.36       4.19
C      18.33       9.63       5.30
C      18.38      13.47       2.81
C      18.34      12.01       4.59
C      18.36      11.12       3.50
C       3.82       2.85       5.87
C       5.00       2.62       2.47
C       2.72       3.60       5.46
C       6.09       1.88       2.90
C       4.18       2.97       3.56
C       4.66       2.49       4.80
C      19.27      18.77      27.60
C      21.17      19.85      29.34
C      19.16      20.13      27.96
C      21.27      18.51      28.96
C      20.13      20.64      28.83
C      20.33      17.98      28.10
C      17.22      11.53      27.84
C      15.01       9.03      29.18
C      16.15      12.21      27.25
C      16.09       8.36      29.74
C      15.43      10.18      28.48
C      16.82      10.37      28.54
C      30.62      17.47      27.62
C      29.46      20.51      29.15
C      31.73      18.12      27.09
C      28.36      19.84      29.66
C      30.28      19.64      28.41
C      29.78      18.32      28.37
C      21.98      11.01      13.07
C      12.49      13.84      17.32
C      16.31       4.36       2.72
C      18.09      21.07      27.47
S      11.06       7.38      12.88
S      14.73       8.92      11.55
S      21.98      13.42      18.45
S      21.34      13.83      22.57
S       7.54       5.13      18.24
S       7.33       4.38      22.35
S      28.40      15.79      12.88
S      25.38      18.24      11.32
S      18.31      11.18       6.10
S      18.39      11.94       1.99
S       2.71       3.86       3.74
S       6.13       1.61       4.62
S      14.63      11.41      27.57
S      17.62       9.13      29.42
S      31.75      19.80      27.53
S      28.30      18.15      29.24
O      27.02      10.92      16.26
O       7.48       7.74      16.95
O       9.08      11.71      18.95
O      10.22      10.77      14.69
O       7.40       9.01      18.86
O       9.06       8.81      14.44
O       9.97      12.75      17.14
O       8.46      13.42      14.46
O      24.39      10.73      14.36
O      25.78      13.49      14.68
O      25.47       8.73      14.41
O      25.50      11.79      19.00
O      24.23      12.25      17.15
O      18.40       5.43       8.14
O      16.63       7.55       9.87
O      15.74       3.95       7.00
O      18.40       7.30       5.49
O      15.54       5.54       9.72
O      18.30       8.59       7.38
O      17.20       4.40       5.32
O      20.32       4.77       5.60
O      20.96       5.74      10.14
O      21.25       3.96       7.52
O      19.78       7.69      10.02
O      17.16       2.86       9.66
O      19.44       2.92       9.85
O      16.06      16.38      24.39
O      17.89      15.57      21.85
O      18.64      16.91      26.27
O      15.98      19.53      23.61
O      18.95      15.00      23.79
O      16.21      18.25      21.72
O      17.23      18.69      26.37
O      14.12      18.46      25.95
O      13.50      14.69      23.30
O      13.21      16.35      25.98
O      14.75      15.46      21.55
O      17.26      14.03      26.27
O      15.00      13.77      25.97
O      18.47      17.72       0.01
O      17.19       6.65      30.88
O      13.33       3.90      30.65
O      26.33      19.62      30.81
O      14.91       6.63      30.78
O      27.40      21.65      30.79
O      23.15      19.69      30.61
O      18.40      14.56       0.75
O      11.29       0.87       2.76
O      18.44      15.81       2.66
O      12.50       1.55       0.95
O       7.09       1.55       0.81
O       8.11       0.72       2.68
F      12.73      10.87      13.42
F      24.21      12.41      21.49
F       7.27       7.56      21.27
F      24.52      15.56      13.18
F      18.38       8.75       3.05
F       4.07       2.50       7.14
F      18.50      11.92      27.75
F      30.35      16.16      27.44
