158

Al       0.19      21.11      12.19
Al       4.07      35.19      20.32
H       2.86      33.97      15.94
H       1.43      34.28      16.93
H       1.27      33.39      15.40
H       1.36      31.04      14.31
H       2.91      30.20      14.43
H       2.85      31.99      14.46
H       1.51      30.80      21.14
H       2.86      31.92      20.96
H       3.15      30.17      20.92
H       3.25      28.09      19.36
H       1.67      27.69      18.67
H       1.77      28.62      20.18
H       1.07      25.19      18.20
H       2.67      25.96      18.18
H       2.54      24.20      18.10
H       2.87      22.29      16.49
H       1.45      21.96      15.48
H       1.25      22.76      17.05
H       2.81      28.37      13.25
H       1.27      28.57      14.07
H       1.34      27.70      12.51
H       1.38      25.54      11.42
H       2.83      24.55      11.56
H       2.95      26.32      11.66
H       2.85      32.01      23.56
H       1.42      32.72      22.82
H       1.27      31.84      24.34
H       1.24      17.98       2.53
H       2.80      18.49       3.19
H       2.73      17.63       1.62
H       1.53      38.10      23.72
H       2.89      37.38      22.84
H       3.18      38.21      24.37
H       3.14      23.79       2.62
H       1.53      23.43       3.25
H       1.71      24.28       1.70
H       1.04      24.28       5.66
H       2.62      23.87       4.99
H       2.52      24.68       6.55
H       2.87      24.24       9.02
H       1.45      23.55       9.81
H       1.25      24.50       8.34
H       2.75      18.40       5.38
H       1.20      19.01       4.81
H       1.29      18.10       6.34
H       1.35      18.23       8.75
H       2.81      18.85       9.53
H       2.92      18.05       7.95
H       2.88      39.58      21.47
H       1.44      38.58      21.24
H       1.30      40.35      21.25
H       1.30      14.31      19.79
H       2.84      14.63      18.99
H       2.80      13.70      20.52
H       1.47      36.69      16.13
H       2.84      36.29      17.17
H       3.10      37.20      15.67
H       3.02      11.68      14.64
H       1.33      12.17      14.72
H       1.76      10.44      14.71
H       1.05      13.92      12.69
H       2.59      13.49      13.43
H       2.57      14.45      11.94
H       2.85      16.80      11.07
H       1.43      17.83      11.28
H       1.23      16.08      11.21
H       2.82      16.56      17.95
H       1.25      15.80      17.73
H       1.38      17.58      17.75
H       1.39      19.59      16.42
H       2.84      19.95      15.48
H       2.97      18.98      16.96
C       2.16      19.29      13.18
C       2.16      22.89      13.28
C       2.16      21.18      10.11
C       2.12      33.45      19.19
C       2.12      35.08      22.40
C       2.12      37.05      19.39
C       2.16      32.18      18.41
C       2.27      30.96      19.11
C       2.23      29.75      18.40
C       2.26      29.79      16.98
C       2.25      31.03      16.29
C       2.12      32.23      17.01
C       2.04      25.21      16.26
C       2.03      26.47      15.61
C       2.05      26.57      14.19
C       2.16      25.38      13.44
C       2.13      24.14      14.09
C       2.04      24.04      15.50
C       2.17      35.05      23.89
C       2.14      22.18       0.20
C       2.12      22.17       1.61
C       2.15      20.92       2.28
C       2.13      19.70       1.55
C       1.98      19.73       0.15
C       2.01      22.58       6.61
C       1.99      21.39       5.84
C       2.00      20.12       6.47
C       2.13      20.06       7.87
C       2.11      21.25       8.62
C       2.03      22.51       8.01
C       2.16      38.36      18.68
C       2.14      10.21      17.27
C       2.11      11.44      16.59
C       2.17      12.65      17.34
C       2.17      12.61      18.76
C       2.02      11.39      19.43
C       2.04      15.55      13.72
C       2.03      15.48      15.14
C       2.05      16.67      15.92
C       2.16      17.91      15.27
C       2.12      17.96      13.86
C       2.03      16.79      13.08
C       1.91      33.53      16.29
C       2.35      31.07      14.79
C       2.45      30.96      20.61
C       2.22      28.46      19.19
C       2.08      25.14      17.76
C       1.90      22.69      16.16
C       1.85      27.87      13.47
C       2.34      25.45      11.95
C       1.90      32.53      23.78
C       2.23      18.38       2.26
C       2.48      37.55      23.85
C       2.12      23.49       2.33
C       2.05      23.92       5.92
C       1.89      23.77       8.83
C       1.80      18.84       5.71
C       2.31      18.73       8.56
C       1.93      39.51      20.92
C       2.29      13.88      19.56
C       2.42      37.07      16.52
C       2.05      11.42      15.08
C       2.07      14.28      12.90
C       1.88      16.88      11.58
C       1.86      16.66      17.42
C       2.35      19.17      16.07
N       2.41      28.67      16.13
N       1.88      27.57      16.49
N       2.32      20.73       3.68
N       1.83      21.60       4.45
N       2.32      13.95      16.82
N       1.89      14.17      15.64
O       3.10      21.79      10.72
O       3.10      19.51      12.34
O       3.10      22.05      13.51
O       1.24      20.51      10.70
O       1.24      22.71      12.41
O       1.24      20.13      13.46
O       3.03      36.80      20.25
O       3.03      34.32      18.97
O       3.03      34.46      21.75
O       1.17      36.24      19.09
O       1.17      35.74      21.84
O       1.17      33.61      20.04
