320

Zn       5.22      19.46       9.19
Zn      12.08       0.21      10.48
Zn       1.78       0.64       9.63
Zn       8.65      19.02      10.04
Zn       5.08      10.04      19.02
Zn      11.95       9.63       0.64
Zn       8.51       9.19      19.46
Zn       1.65      10.48       0.20
Zn       0.00       9.59       9.59
Zn       6.86      10.07      10.07
Zn      10.30       0.24      19.43
Zn       3.43      19.43       0.24
Zn       3.43      10.47       9.19
Zn      10.30       9.19      10.47
Zn       0.00       0.64       0.64
Zn       6.86      19.03      19.02
H       8.08      18.01       2.97
H       8.98      17.83       5.29
H       5.52      13.26       8.00
H       5.50      13.17       9.82
H       3.90       1.31       6.17
H      13.20      14.47       9.57
H       0.46      16.75       9.69
H       7.41      10.00      16.31
H       1.21       1.66      16.69
H       2.12       1.84      14.38
H      12.38       6.40      11.66
H      12.37       6.49       9.85
H      10.77      18.35      13.49
H       6.34       5.19      10.09
H       7.33       2.92       9.97
H       0.55       9.67       3.36
H       4.65       6.86       8.17
H       5.55       4.54       7.99
H       2.09       1.83       3.43
H       2.07       0.02       3.34
H       0.47       3.66      11.14
H       9.77       0.26       4.64
H      10.76       0.14       6.91
H       3.98      13.19       0.16
H      11.51      12.81      11.49
H      12.42      15.12      11.67
H       8.95      17.83      16.23
H       8.94      19.65      16.33
H       7.34      16.00       8.52
H       2.90      19.40      15.03
H       3.89      19.53      12.75
H      10.84       6.48      19.50
H       2.22      11.49      12.81
H       1.31      11.67      15.12
H       4.78      16.23      17.83
H       4.79      16.33      19.65
H       6.39       8.52      16.00
H      10.83      15.03      19.40
H       9.83      12.75      19.53
H       2.89      19.50       6.48
H       9.08       8.18       6.86
H       8.18       7.99       4.54
H      11.64       3.43       1.83
H      11.66       3.34       0.02
H      13.26      11.14       3.66
H       3.96       4.64       0.26
H       2.97       6.91       0.14
H       9.75       0.16      13.19
H       5.65       2.98      18.01
H       4.75       5.29      17.83
H       8.21       8.00      13.26
H       8.23       9.82      13.17
H       9.83       6.17       1.31
H       0.53       9.57      14.47
H      13.27       9.70      16.75
H       6.32      16.31      10.00
H      12.52      16.69       1.66
H      11.61      14.38       1.84
H       1.34      11.66       6.40
H       1.36       9.85       6.49
H       2.96      13.49      18.35
H       7.39      10.09       5.19
H       6.40       9.97       2.92
H      13.18       3.36       9.67
C       7.82      18.59       7.59
C       3.03      17.49       9.51
C       5.67      18.87       2.16
C       5.37      19.04       4.68
C       6.14      18.71       3.57
C       5.89      18.95       5.98
C       7.45      18.24       3.83
C       7.19      18.54       6.25
C       7.96      18.16       5.12
C       2.49      16.10       9.39
C       2.70      13.69       9.11
C       4.95      13.47       8.92
C       1.34      13.46       9.29
C       0.73      12.11       9.39
C       3.27      14.97       9.17
C       3.84       0.21       6.11
C       0.54      14.61       9.46
C       1.10      15.88       9.52
C       0.95       1.07      12.08
C       9.89       2.17      10.16
C      12.53       0.79      17.51
C      12.23       0.63      14.98
C      13.00       0.96      16.09
C      12.76       0.72      13.68
C       0.59       1.42      15.83
C       0.33       1.12      13.42
C       1.10       1.51      14.55
C       9.36       3.56      10.27
C       9.57       5.97      10.55
C      11.81       6.19      10.75
C       8.21       6.21      10.38
C       7.59       7.56      10.28
C      10.14       4.70      10.50
C      10.71      19.45      13.56
C       7.41       5.05      10.20
C       7.96       3.78      10.15
C       4.38       2.24       8.76
C      13.33       0.32       7.66
C       2.24       7.67       9.04
C       1.94       5.15       9.20
C       2.70       6.26       8.87
C       2.46       3.85       9.11
C       4.02       6.00       8.41
C       3.76       3.59       8.71
C       4.53       4.72       8.32
C      12.79       0.44       6.27
C      13.00       0.72       3.86
C       1.52       0.92       3.64
C      11.64       0.54       3.62
C      11.02       0.45       2.28
C      13.57       0.67       5.14
C       0.41       3.72      10.04
C      10.84       0.37       4.78
C      11.39       0.32       6.05
C      11.25      17.42      10.90
C       6.46      19.34      12.00
C       9.10      11.99      10.62
C       8.80      14.52      10.46
C       9.57      13.40      10.79
C       9.33      15.81      10.55
C      10.88      13.67      11.25
C      10.63      16.08      10.96
C      11.39      14.95      11.34
C       5.93      19.23      13.40
C       6.13      18.95      15.81
C       8.38      18.75      16.02
C       4.78      19.12      16.04
C       4.16      19.22      17.39
C       6.70      19.00      14.53
C       7.28      15.94       9.62
C       3.98      19.29      14.88
C       4.53      19.35      13.62
C       2.48      10.91      17.42
C       7.27      12.00      19.34
C       4.63      10.62      11.99
C       4.93      10.46      14.52
C       4.16      10.79      13.40
C       4.40      10.55      15.81
C       2.85      11.25      13.67
C       3.10      10.96      16.08
C       2.34      11.34      14.95
C       7.80      13.40      19.23
C       7.60      15.81      18.95
C       5.35      16.03      18.75
C       8.95      16.04      19.12
C       9.57      17.39      19.22
C       7.03      14.53      19.00
C       6.45       9.62      15.94
C       9.75      14.88      19.29
C       9.20      13.62      19.35
C       9.35       8.76       2.24
C       0.40       7.66       0.32
C      11.49       9.04       7.67
C      11.79       9.20       5.15
C      11.03       8.87       6.26
C      11.27       9.11       3.85
C       9.71       8.41       6.00
C       9.97       8.71       3.59
C       9.20       8.32       4.72
C       0.94       6.27       0.44
C       0.73       3.86       0.72
C      12.21       3.64       0.92
C       2.09       3.62       0.54
C       2.71       2.28       0.45
C       0.16       5.14       0.67
C      13.32      10.04       3.72
C       2.89       4.78       0.37
C       2.34       6.05       0.32
C       5.91       7.59      18.59
C      10.70       9.51      17.49
C       8.06       2.16      18.87
C       8.36       4.69      19.04
C       7.59       3.57      18.71
C       7.84       5.98      18.95
C       6.28       3.83      18.24
C       6.54       6.25      18.54
C       5.77       5.12      18.16
C      11.24       9.39      16.10
C      11.03       9.11      13.69
C       8.78       8.92      13.47
C      12.39       9.29      13.46
C      13.00       9.39      12.11
C      10.46       9.17      14.97
C       9.88       6.11       0.21
C      13.19       9.46      14.61
C      12.63       9.52      15.88
C      12.78      12.08       1.07
C       3.83      10.16       2.17
C       1.20      17.51       0.79
C       1.50      14.98       0.63
C       0.73      16.09       0.96
C       0.97      13.68       0.72
C      13.14      15.83       1.42
C      13.40      13.42       1.12
C      12.63      14.55       1.51
C       4.37      10.27       3.56
C       4.16      10.55       5.97
C       1.91      10.75       6.19
C       5.52      10.38       6.21
C       6.14      10.28       7.55
C       3.59      10.50       4.70
C       3.02      13.56      19.45
C       6.32      10.20       5.05
C       5.77      10.15       3.78
O       7.08      18.88       8.64
O       4.92      19.31       6.88
O       4.27      17.68       9.24
O       2.20      18.38       9.88
O       1.46      11.04       9.15
O       6.54      18.63       1.27
O       4.06      19.46       4.75
O       4.63      14.88       8.97
O      13.26      11.96       9.69
O       3.69      12.77       8.86
O       4.46      19.24       1.97
O       9.04      18.39       7.75
O       0.22       0.79      11.02
O      11.79       0.36      12.78
O      11.13       1.98      10.43
O       9.06       1.29       9.79
O       8.32       8.63      10.51
O      13.41       1.04      18.40
O      10.93       0.20      14.92
O      11.49       4.79      10.70
O       6.39       7.70       9.97
O      10.55       6.90      10.81
O      11.33       0.43      17.70
O       2.17       1.27      11.91
O       3.65       1.19       9.05
O       1.49       2.95       9.47
O       0.83       0.60       7.85
O      12.49      19.62       8.54
O      11.76       0.68       1.20
O       3.11       8.57       8.79
O       0.63       5.08       9.63
O       1.20       0.86       5.04
O       9.82       0.14       2.13
O       0.25       0.97       2.94
O       1.03       7.87       9.41
O       5.61       2.08       8.56
O      10.51      18.48      10.62
O       8.36      16.72      10.19
O       7.70      19.07      11.82
O       5.63       0.04      11.12
O       4.89      18.98      18.46
O       9.98      11.10      10.87
O       7.50      14.58      10.04
O       8.06      18.80      14.62
O       2.96      19.53      17.53
O       7.12      18.69      16.73
O       7.90      11.80      10.26
O      12.47      17.58      11.11
O       3.22      10.62      18.48
O       5.37      10.19      16.72
O       6.03      11.82      19.07
O       8.10      11.12       0.04
O       8.84      18.46      18.98
O       3.75      10.87      11.10
O       6.23      10.04      14.58
O       5.67      14.62      18.80
O      10.77      17.53      19.53
O       6.61      16.73      18.69
O       5.83      10.26      11.80
O       1.26      11.11      17.58
O      10.08       9.05       1.19
O      12.24       9.47       2.95
O      12.90       7.85       0.60
O       1.24       8.55      19.62
O       1.97       1.20       0.68
O      10.62       8.79       8.57
O      13.10       9.63       5.08
O      12.53       5.04       0.86
O       3.91       2.13       0.14
O      13.48       2.94       0.97
O      12.70       9.41       7.87
O       8.12       8.56       2.08
O       6.65       8.64      18.88
O       8.81       6.88      19.31
O       9.46       9.24      17.68
O      11.53       9.88      18.38
O      12.27       9.15      11.04
O       7.19       1.27      18.63
O       9.66       4.75      19.46
O       9.10       8.97      14.88
O       0.47       9.69      11.96
O      10.04       8.86      12.77
O       9.26       1.97      19.24
O       4.69       7.75      18.39
O      13.51      11.02       0.79
O       1.94      12.78       0.36
O       2.60      10.43       1.98
O       4.67       9.79       1.29
O       5.41      10.51       8.63
O       0.32      18.40       1.04
O       2.80      14.92       0.20
O       2.24      10.70       4.79
O       7.34       9.97       7.70
O       3.18      10.81       6.90
O       2.40      17.70       0.43
O      11.55      11.91       1.27
