113

La       1.89      11.88       8.03
La      -1.81      -1.54       8.02
H       1.78       7.28       1.69
H      -1.92       3.07      14.36
H       2.23       6.06       0.45
H      -1.47       4.29      15.60
H       6.18       6.73       1.69
H       2.48       3.62      14.36
H       6.12       5.35       2.84
H       2.42       5.00      13.21
H       2.34       4.34       2.04
H      -1.37       6.01      14.01
H       1.91       5.49       3.35
H      -1.79       4.85      12.70
H       6.88       3.66       1.17
H       3.18       6.69      14.88
H       6.55       5.05       0.08
H       2.85       5.30      15.97
H       3.42       4.07       3.98
H      -0.28       6.28      12.07
H       4.65       2.55       5.50
H       0.96       7.80      10.56
H       1.13       0.15       6.01
H       4.83      10.20      10.03
H      -0.15       1.68       4.50
H       3.56       8.67      11.54
H      -1.17      -0.43      13.81
H       2.53      10.78       2.24
H      -1.83      -1.27      11.56
H       1.87      11.62       4.49
H       1.52      -1.73      12.90
H       5.21      12.08       3.14
H       2.14      -0.89      15.15
H       5.85      11.23       0.90
H       4.58       7.16       3.05
H       0.87       3.19      13.00
H       3.09       8.58       4.43
H      -0.61       1.76      11.62
H      -0.97       9.78       6.84
H       2.73       0.57       9.21
H       0.56       8.41       5.45
H       4.26       1.94      10.60
C       0.55       5.49       1.67
C      -3.15       4.86      14.38
C       1.38       6.56       0.96
C      -2.32       3.79      15.09
C       6.77       6.13       2.41
C       3.07       4.22      13.64
C       1.50       4.77       2.62
C      -2.20       5.58      13.43
C      -0.06       4.52       0.65
C       3.63       5.82      15.40
C       1.56       2.95       4.14
C      -2.14       7.40      11.91
C       2.91       3.21       4.41
C      -0.79       7.14      11.64
C       3.60       2.36       5.26
C      -0.09       7.99      10.79
C       2.97       1.25       5.83
C      -0.72       9.10      10.22
C       1.62       1.00       5.56
C      -2.08       9.34      10.49
C       0.91       1.85       4.72
C       4.61       8.50      11.33
C      -3.17      -0.58      14.61
C       0.53      10.92       1.44
C      -2.20      -0.72      13.60
C       1.50      11.07       2.44
C      -2.57      -1.21      12.35
C       1.13      11.55       3.69
C       3.50      -1.55      12.09
C      -0.20      11.90       3.96
C       2.54      -1.44      13.11
C       6.24      11.79       2.93
C       2.90      -0.96      14.37
C       6.60      11.30       1.68
C       3.05      -1.98      10.75
C      -0.65      12.32       5.30
C       6.37       7.70       4.16
C       2.67       2.65      11.89
C       4.99       7.73       3.87
C       1.29       2.61      12.17
C       4.15       8.53       4.65
C       0.46       1.81      11.40
C       4.66       9.28       5.72
C       0.96       1.06      10.33
C      -1.36       9.21       6.00
C       2.34       1.13      10.04
C      -0.51       8.44       5.23
C       3.19       1.91      10.82
C       3.76      10.15       6.50
C       0.06       0.20       9.55
C       3.76       0.35       6.70
C       0.07       9.99       9.35
O       3.87      -1.93       9.74
O       0.18      12.27       6.31
O       1.85      -2.36      10.57
O       5.55      12.71       5.48
O       4.93       0.68       7.07
O       1.24       9.67       8.99
O       3.25      -0.79       7.07
O      -0.44      11.13       8.98
O       4.24      10.87       7.47
O       0.54      -0.52       8.58
O       2.52      10.20       6.23
O      -1.18       0.15       9.82
O       0.80       3.73       3.30
O      -2.90       6.62      12.75
O      -0.12       6.96       3.45
O       3.57       3.38      12.60
O      -2.75      -0.04      15.79
O       0.96      10.38       0.25
O       0.58       7.23       0.00
