198

Zn      10.91      10.92       1.27
Zn      20.56      10.91      28.00
Zn      21.83       9.64       0.00
Zn      12.18      21.83       0.00
Zn      21.83      21.83      26.73
Zn      32.75      23.10      28.00
H      26.03      23.34      26.48
H      20.32      26.03      26.48
H      17.63      20.31      26.48
H      23.35      17.63      26.48
H      15.11       9.40       1.53
H       9.40       6.71       1.53
H       6.71      12.43       1.53
H      12.43      15.12       1.53
H      28.54      23.40      26.54
H      20.25      28.54      26.54
H      15.12      20.25      26.54
H      23.41      15.12      26.54
H      17.62       9.34       1.46
H       9.34       4.20       1.46
H       4.20      12.49       1.46
H      12.49      17.63       1.46
H      19.28       8.68      13.04
H       8.68      24.38      13.04
H      24.38      13.15      13.04
H      13.15      19.28      13.04
H       8.36      24.07      14.96
H      19.60       8.36      14.96
H      13.47      19.59      14.96
H      24.07      13.47      14.96
H      19.26       8.76      10.56
H       8.76      24.40      10.56
H      24.40      13.07      10.56
H      13.07      19.26      10.56
H       8.34      23.99      17.44
H      19.68       8.34      17.44
H      13.49      19.67      17.44
H      23.99      13.49      17.44
H      21.35      13.01       6.73
H       8.81      21.36       6.73
H      22.31       8.82       6.73
H      13.01      22.31       6.73
H      10.44      19.73      21.28
H      19.74      11.39      21.28
H      11.39      23.93      21.28
H      23.93      10.44      21.28
H      21.35      13.01       4.22
H       8.82      21.36       4.22
H      22.31       8.82       4.22
H      13.00      22.31       4.22
H      10.44      19.73      23.78
H      19.74      11.39      23.78
H      11.39      23.92      23.78
H      23.93      10.43      23.78
C      21.83      10.92       6.86
C      10.91      21.83      12.57
C      12.09      22.10       6.17
C      10.64      20.64      21.83
C      20.65      11.18      21.83
C      11.19      23.01      21.83
C      23.02      10.64      21.83
C      21.56      12.10       4.78
C       9.73      21.56       4.78
C      22.10       9.73       4.78
C      12.09      22.10       4.78
C      10.65      20.64      23.22
C      10.91      21.83      15.43
C      20.65      11.18      23.22
C      11.19      23.01      23.22
C      23.02      10.64      23.22
C      21.83      10.92      15.43
C      21.83      10.92       4.08
C      10.91      21.83       4.08
C      10.92      21.83      23.93
C      21.84      10.91      23.93
C      21.83      24.40      28.00
C      21.84      10.91      12.57
C      19.26      21.83      28.00
C      10.91       8.35       0.00
C      13.48      10.92       0.00
C      26.59      22.69      27.14
C      20.97      26.59      27.15
C      17.07      20.97      27.14
C      22.69      17.07      27.14
C      15.67      10.06       0.86
C      10.05       6.16       0.86
C       6.15      11.78       0.86
C      11.77      15.68       0.86
C      27.98      22.71      27.17
C      20.94      27.98      27.17
C      15.68      20.94      27.17
C      22.72      15.68      27.17
C      17.06      10.03       0.83
C      10.03       4.77       0.83
C       4.76      11.80       0.83
C      11.80      17.07       0.83
C      28.68      21.82      28.00
C      20.01       9.31      12.53
C      10.91      17.77       0.00
C       4.06      10.92       0.00
C      21.83      14.98      28.00
C      14.97      10.92       0.00
C      21.83      25.89      28.00
C      17.77      21.83      28.00
C       9.31      23.66      12.53
C      10.91       6.86       0.00
C      21.83      10.92       2.58
C      10.91      21.83       2.58
C      10.92      21.83      25.42
C      21.84      10.91      25.42
C      23.66      12.52      12.53
C      30.17      21.82      28.00
C      10.91      19.26       0.00
C       2.57      10.92       0.00
C      21.84      13.49      28.00
C      10.91      21.83       6.86
C      12.52      20.00      12.53
C      20.92      10.06      13.27
C      10.06      22.74      13.27
C      22.74      11.77      13.27
C      11.77      20.92      13.27
C      10.00      22.68      14.73
C      20.98      10.00      14.73
C      11.82      20.98      14.73
C      22.68      11.83      14.73
C       9.09      23.44      15.47
C      20.23       9.09      15.47
C      12.74      20.22      15.47
C      23.44      12.74      15.47
C      10.92      21.83      21.14
C      19.99       9.34      11.13
C       9.34      23.68      11.13
C      23.68      12.49      11.13
C      12.49      19.98      11.13
C       9.07      23.40      16.87
C      20.26       9.07      16.87
C      12.76      20.26      16.87
C      21.84      10.91      21.14
C      23.40      12.76      16.87
C      20.90      10.12      10.43
C      10.12      22.77      10.43
C      22.77      11.70      10.43
C      11.70      20.89      10.43
C       9.98      22.62      17.57
C      21.04       9.98      17.57
C      11.85      21.04      17.57
C      22.62      11.85      17.57
C      21.84      10.91      11.14
C      10.91      21.83      11.14
C      10.91      21.83      16.86
C      21.83      10.92      16.86
C      20.86      10.13       8.96
C      10.12      22.80       8.96
C      22.81      11.70       8.96
C      11.70      20.85       8.95
C       9.94      22.62      19.05
C      21.04       9.94      19.05
C      11.89      21.04      19.05
C      22.62      11.89      19.05
C      21.56      12.10       6.17
C       9.73      21.56       6.17
C      22.10       9.73       6.17
N      21.83      10.92       8.30
N      10.91      21.83       8.30
N      10.91      21.83      19.70
N      21.83      10.91      19.70
O      11.27      12.90       1.08
O       8.93      11.27       1.08
O      10.56       8.93       1.08
O      12.90      10.57       1.08
O      22.18      19.84      26.92
O      19.85      21.48      26.92
O      21.48      23.81      26.92
O      23.82      22.18      26.92
O      21.55      12.02       2.00
O       9.81      21.55       2.00
O      22.11       9.81       2.00
O      12.01      22.11       2.00
O      10.64      20.72      26.01
O      20.73      11.19      26.01
O      11.20      22.93      26.01
O      22.94      10.63      26.01
O      30.76      22.92      27.70
O      20.73      30.75      27.70
O      12.91      20.73      27.70
O      22.93      12.90      27.70
O      19.84       9.82       0.30
O       9.82       1.99       0.30
O       1.99      12.01       0.30
O      12.01      19.84       0.30
O      20.03       9.49       8.31
O       9.48      23.63       8.31
O      23.63      12.35       8.31
O      12.34      20.03       8.31
O       9.11      23.26      19.69
O      20.41       9.11      19.69
O      12.72      20.40      19.69
O      23.26      12.72      19.69
