88

Cu      14.79      16.93       6.60
Cu      16.37       9.31       5.29
Cu       4.49       6.65       0.50
Cu      18.47      13.86      10.76
Cu       0.12       8.39       0.82
Cu      14.10      15.61      11.08
Cu       2.21      12.94       6.28
Cu       3.80       5.32       4.97
H      11.14       5.48       1.99
H       5.70       3.72       0.75
H      14.04      15.64       3.79
H      12.88      18.53      10.82
H       6.25      15.96       7.22
H       6.22       9.69       6.13
H       4.54       6.61       7.78
H      13.28       9.98       5.04
H      10.18      18.97      11.23
H       7.45      16.77       9.58
H       2.24       2.14       1.44
H      12.34       6.29       4.35
H      16.35      20.11      10.14
H       5.31      12.27       6.54
H       8.41       3.28       0.35
H      12.36      12.56       5.44
C       2.74       8.79       0.38
C       2.41       2.45       2.46
C       3.55       4.84       2.25
C      12.10      17.83      11.09
C      14.54      12.89      11.52
C      14.54      12.89       5.84
C       6.49       4.42       0.49
C      12.62       6.52       3.33
C      16.17      19.80       9.12
C      13.83      10.88       5.30
C      19.16       5.64       7.93
C       2.98       3.66       2.89
C       5.96      15.73       8.24
C       4.05       9.36       5.73
C       4.88      14.95       8.68
C       5.21      10.07       6.06
C       7.85       4.21       0.28
C      14.86      14.28       6.17
C       3.72       7.97       5.40
C      10.73      18.04      11.30
C      15.04      17.41       9.32
C      -0.57      16.61       3.64
C      14.77       8.06       3.54
C      13.38      12.18       5.51
C       6.58      16.14       9.42
C      12.00       6.11       2.15
C      13.70       7.30       2.90
C      15.85      13.46      11.19
C      15.60      18.60       8.68
C       3.82      14.19       8.04
C       4.04       9.36       0.05
C       4.76      11.37       6.27
N       5.91      15.64      10.49
N      13.53      13.79      11.54
N       2.98      10.19       5.75
N      14.88      17.36       4.71
N      13.71       7.34       1.54
N      12.39      16.52      11.28
N       3.03       3.67       4.25
N       3.70       4.89       6.87
N      12.68       6.61       1.08
N       3.41      11.42       6.08
N       4.87      14.91      10.03
N       6.20       5.73       0.29
N      15.56      18.58       7.33
N      15.60      12.06       5.82
N      15.17      10.83       5.49
N       5.06       8.46       0.03
O       3.59       4.94       0.98
O      14.56      16.50       8.54
O       3.73      14.13       6.77
O      15.00      17.31      10.59
O       2.48       7.70       5.19
O       4.02       5.75       3.03
O      18.08      13.56       8.82
O       4.63       7.08       5.37
O       2.70       7.52       0.60
O       0.50       8.69       2.75
O      15.89      14.73      10.97
O      16.10      14.55       6.39
O      16.89      12.72      11.16
O       1.70       9.53       0.41
O      14.86       8.12       4.81
O      13.95      15.17       6.20
