64

Al       6.68       5.85       8.98
Al       3.35       5.87       8.95
H       4.99       4.77      10.38
H       8.31       7.19       7.72
H       7.11       4.96       4.95
H       7.12       4.82       2.47
H       3.08       6.36       2.38
H      10.56       6.46      15.44
H       6.20       6.49      13.03
H       6.24       6.80      15.49
H       9.60       6.43       5.90
H       3.88       6.04      11.93
H       9.52       8.94       9.46
H       6.24       2.89       9.29
H       6.57       7.96       7.34
H       8.36       8.76       5.07
H       4.79       2.86       4.82
H       3.25       3.78       6.99
C       8.36       3.44       8.59
C       8.27       6.09      11.38
C       4.95       8.32       8.76
C       5.11       5.75       6.53
C       5.09       5.70       5.07
C       6.23       5.26       4.37
C       6.25       5.18       3.00
C       5.10       5.58       2.26
C       3.96       6.05       2.93
C       3.94       6.10       4.33
C       5.10       5.49       0.85
C       8.42       6.78      17.04
C       8.40       6.64      15.63
C       9.60       6.47      14.92
C       9.58       6.30      13.53
C       8.34       6.30      12.83
C       7.15       6.49      13.56
C       7.17       6.66      14.93
C       8.23       2.03       8.21
C       2.56       1.30       7.41
C       7.13       1.34       8.75
C       3.37       1.94       6.46
C       4.27       1.25       5.64
C       4.89       9.71       8.32
C      10.42      10.45       8.80
C       5.89      10.39       7.49
C       6.80       9.72       6.63
C       7.64      10.40       5.74
O       7.31       4.05       9.06
O       9.39       5.83      10.76
O      10.52       7.74       9.20
O       6.19       5.52       7.15
O       6.07       7.68       8.76
O       4.00       6.03       7.14
O       2.86       4.04       8.55
O       7.15       6.15      10.79
O       5.00       5.26       9.55
O       8.34       6.46       8.38
O       9.45       6.55       4.92
O       4.12       6.14      12.89
O       9.37       9.93       9.44
O       6.08       1.91       9.36
O       6.90       8.36       6.48
O       8.49       9.72       4.92
O       5.03       1.91       4.73
O       3.30       3.28       6.14
