177

Zn      25.08      11.41       8.26
Zn      10.42      11.50       8.27
Zn       8.77      10.60       5.67
Zn       8.93       8.68       8.25
Zn      28.23      20.18      14.62
Zn      17.70      16.16       1.90
Zn      24.99      20.25      14.53
Zn      17.93       6.88      14.63
H       5.79       5.84       4.83
H      25.56      15.15       5.25
H      24.89      15.66       3.68
H      22.39      15.25       7.21
H      24.13      14.96       7.26
H      23.52      16.62       7.09
H      12.15       4.67       2.31
H      12.35       4.26       4.02
H      11.60       3.09       2.91
H       6.16       3.37       4.83
H       4.74       3.43       3.75
H      24.92      15.70       9.47
H       6.16       2.43       3.33
H      15.11      10.45       9.56
H      15.33       9.01       8.56
H      13.81       9.95       8.46
H      11.96       8.09      14.54
H      11.05       6.65      15.07
H      12.84       6.66      15.13
H       9.58      13.38       3.94
H       9.94      14.96       3.20
H       9.97      13.50       2.22
H      24.94       9.72      11.68
H      11.61      14.47       0.73
H      11.29      15.84       1.79
H      12.85      15.69       0.94
H      22.20       5.25       6.08
H      20.43       5.29       5.99
H      21.38       6.78       5.71
H      27.12      14.53      14.45
H      28.77      14.53      15.12
H      27.80      16.04      15.13
H      22.01       7.17      14.65
H      23.72      10.22      12.87
H      23.08       8.56      14.44
H      21.32       8.76      14.30
H      23.35      10.11       4.34
H      21.59       9.94       4.35
H      22.47      10.06       2.82
H      20.97      11.29       1.31
H      20.09      10.77       2.76
H      19.54      12.18       1.84
H      24.76       8.81      13.18
H      20.70      16.03       6.02
H      21.42      17.64       5.75
H      20.22      16.97       4.60
H      25.05      16.84       5.00
C      11.57       9.14       9.52
C      23.10      12.72       4.70
C      22.28      11.94       3.87
C      24.16      12.09       5.56
C      21.30      12.54       3.04
C      21.12      13.94       3.05
C      21.91      14.68       3.92
C      22.18      16.08       4.44
C      23.42      15.42       5.28
C       7.83       5.91       3.95
C       8.94       6.51       4.54
C      20.31       5.79      10.00
C      10.18       5.91       4.25
C      10.32       4.75       3.44
C       9.16       4.16       2.92
C      26.59      13.52       9.59
C       7.94       4.75       3.20
C       6.44       4.56       3.06
C       6.32       5.94       3.88
C      12.22       7.62      11.38
C      12.62       8.50      10.37
C      14.01       8.72      10.23
C      21.25       6.67      10.62
C      14.90       8.08      11.14
C      14.48       7.24      12.19
C      13.11       7.03      12.26
C      12.03       6.43      13.16
C       8.83       7.70       5.45
C      10.99       7.06      12.06
C      13.50      13.01       4.89
C      12.13      13.01       4.64
C      11.68      13.74       3.52
C      12.62      14.37       2.64
C      22.22       7.34       9.77
C      14.01      14.28       2.88
C      14.41      13.62       4.04
C      15.63      13.15       4.80
C      14.54      12.38       5.78
C      27.56      14.96      11.41
C      11.21      12.22       5.53
C      26.61      14.76      10.41
C      25.67      15.79      10.25
C      25.69      16.94      11.05
C      26.60      17.10      12.12
C      23.17       8.21      10.39
C      27.54      16.07      12.25
C      28.59      15.52      13.21
C      28.71      14.29      12.12
C       9.19       2.93       2.06
C      26.58      18.25      13.08
C      20.16      14.62       2.14
C      24.26       8.92       9.62
C      15.42       6.61      13.18
C      15.06      14.81       1.97
C      20.31       6.36      13.01
C      23.18       8.44      11.76
C      22.16       7.07       8.36
C      21.28       6.16       7.78
C      20.35       5.52       8.64
C      24.20       9.35      12.40
C      21.06      16.72       5.25
C      24.81      15.79       4.76
C      23.35      15.57       6.79
C      11.67       4.16       3.16
C       5.83       3.37       3.78
C      14.58       9.58       9.14
C      22.21       7.81      12.59
C      11.96       6.99      14.56
C      10.22      13.90       3.22
C      12.08      15.14       1.47
C      21.31       5.86       6.31
C      28.03      15.13      14.56
C      22.16       8.09      14.07
C      22.44      10.44       3.85
C      20.42      11.66       2.20
C      21.29       6.94      12.02
C      22.89      14.10       4.71
Cl      11.60       6.65       4.91
Cl      16.58      14.40       5.61
Cl      14.58      10.60       5.68
Cl      14.56      12.88       7.47
Cl      24.54      18.17      10.67
Cl      30.08      16.47      13.42
Cl      12.32      14.24      11.20
Cl      28.37      12.67      12.77
Cl      19.23       4.38       7.97
Cl      19.07       5.02      10.91
Cl      13.93       1.13       3.15
Cl       5.85       4.60       1.37
Cl       5.59       7.33       3.05
Cl      23.20       7.90       7.24
Cl      16.60       8.32      10.91
Cl      12.02       4.64      13.22
Cl      10.04       5.89      11.14
Cl       9.89       8.32      12.71
Cl      16.72      12.09       3.88
O       8.82      10.55       7.63
O      15.30       5.35      13.31
O      16.08      15.29       2.57
O      10.62       8.37       9.18
O      19.31       7.11      13.26
O      14.89      14.72       0.71
O      20.63       5.27      13.58
O      20.26      14.38       0.89
O      16.22       7.38      13.80
O       8.83       1.85       2.63
O      25.44      18.65      13.48
O      25.46      13.15       9.12
O      23.90      11.99       6.80
O      27.71      12.93       9.47
O       8.63       8.81       4.88
O      11.35      12.39       6.78
O      25.33       8.26       9.43
O      10.40      11.44       4.94
O      24.04      10.15       9.35
O       8.92       7.46       6.69
O      11.69      10.38       9.25
O      25.23      11.72       4.97
O      17.86       5.00      15.22
O       9.52       3.08       0.84
O      27.72      18.70      13.42
O      19.32      15.41       2.69
