144

Zn       8.20      10.56       9.75
Zn       8.09       7.62       9.67
H       3.87       7.33       9.92
H      12.42      10.69       9.13
H       7.47      15.55      11.22
H       9.28       2.60       8.80
H      10.71      14.66       8.50
H       5.42       3.49      10.52
H       9.98      12.29       8.57
H       6.04       5.90      10.41
H      10.42      16.67       7.85
H       6.05       1.51      11.66
H       7.84       0.94       7.78
H       8.67      17.23      11.76
H       4.13      11.23       8.11
H      12.16       6.81      10.98
H       9.05       6.97      16.30
H       9.96      10.34       2.78
H       7.07      10.81      13.93
H       7.28       7.58       5.86
H       6.22       9.25      18.39
H      10.35       8.38       1.06
H       6.16       9.25       1.47
H      10.42       8.43      17.97
H       4.55      14.95      11.33
H       5.29      14.83       9.72
H       3.66      14.19       9.99
H       5.33      12.29       9.93
H       4.55      12.42      11.50
H       6.88      12.00      11.88
H       6.54      13.66      12.40
H      11.47       7.03       6.98
H      12.35       5.48       6.97
H      11.50       6.05       5.51
H      10.10       4.29       6.62
H       9.30       5.87       6.73
H      10.33       6.17       9.05
H      10.93       4.50       8.94
H       9.05       4.32      11.97
H       9.60       3.79      13.57
H       8.03       3.25      12.95
H       7.72       5.10      14.64
H       7.18       5.63      13.05
H       9.34       6.78      12.65
H       9.94       6.21      14.22
H      11.41      13.23       6.67
H      11.72      13.52       4.95
H      10.46      14.44       5.79
H       9.46      12.60       4.36
H       9.06      12.38       6.07
H      10.88      10.72       6.33
H      11.38      10.97       4.65
H       7.46      14.17      16.48
H       8.03      13.62      18.07
H       9.18      14.32      16.91
H       9.41      11.81      16.94
H       8.85      12.36      15.37
H       6.47      11.83      16.05
H       7.08      11.22      17.59
H       5.48       4.46       3.47
H       5.88       4.78       1.78
H       6.77       3.54       2.67
H       8.15       5.65       2.48
H       7.77       5.31       4.17
H       5.84       6.92       4.04
H       6.24       7.25       2.35
C       8.76       9.25       7.19
C       7.70       8.89      12.24
C       8.16       8.91      16.53
C       8.42       8.84       2.92
C       7.61      10.03      15.86
C       7.65       8.04       3.79
C       7.47       9.95      14.47
C       7.85       8.19       5.17
C       7.87       8.83      13.73
C       8.75       9.13       5.70
C       7.20       9.06      18.84
C       9.38       8.59       0.61
C       7.03       9.06       0.84
C       9.54       8.59      18.60
C       8.27       8.80       1.45
C       8.31       8.86      18.00
C       7.73      13.50      10.65
C       8.81       4.67       9.12
C       8.07      14.86      10.62
C       8.52       3.31       9.14
C       9.13      15.33       9.85
C       7.31       2.84       9.65
C      10.68       8.96      10.20
C       5.63       9.15       9.07
C       9.85      14.38       9.10
C       6.39       3.79      10.13
C       9.46      13.05       9.14
C       6.72       5.13      10.06
C      10.18      17.30       8.70
C       6.30       0.87      10.82
C       7.33       0.54       8.66
C       9.17      17.63      10.87
C       6.99       1.40       9.71
C       9.50      16.76       9.81
C       4.14       9.26       9.03
C      12.16       8.79      10.07
C      14.11       7.42      10.33
C       2.17      10.57       8.66
C      12.77       7.58      10.51
C       3.53      10.44       8.55
C      12.91       9.77       9.46
C       3.38       8.24       9.57
C      14.30       9.60       9.27
C       1.99       8.39       9.72
C       8.48       7.74      14.38
C       9.53       9.92       4.84
C       8.60       7.81      15.77
C       9.36       9.73       3.47
C       6.61      13.00      11.52
C       5.24      12.94      10.82
C       4.66      14.30      10.44
C      10.12       5.18       8.60
C      10.17       5.30       7.07
C      11.45       6.00       6.60
C       9.04       6.53      13.67
C       8.07       5.34      13.62
C       8.72       4.10      12.99
C      10.51      10.97       5.32
C       9.89      12.38       5.35
C      10.92      13.45       5.71
C       7.34      11.35      16.53
C       8.56      12.28      16.43
C       8.29      13.67      17.00
C       6.68       6.98       3.32
C       7.32       5.59       3.20
C       6.31       4.53       2.76
N       8.42      12.61       9.89
N       7.90       5.57       9.58
O       8.68      10.40       7.71
O       7.44       7.82      11.61
O       8.78       8.14       7.84
O       7.85      10.04      11.70
O      10.21      10.12      10.02
O       6.15       7.99       9.05
O      10.00       7.90      10.44
O       6.26      10.26       9.18
F       1.75       6.27      10.76
F      14.53      11.71       8.18
