70

Zn       5.52       6.67       6.51
Zn       8.34       6.70       6.61
H       3.23       7.94       7.72
H       9.26       6.38       2.27
H       9.13       2.37       7.24
H       4.73      11.00       5.88
H      12.68       8.73       8.47
H       1.17       4.65       4.66
H       3.65       4.93       4.91
H      10.20       8.44       8.22
H      10.62       5.43       5.40
H       8.86       6.57      10.76
H       5.00       6.80       2.36
H       5.01       2.51       6.05
H       8.84      10.87       7.07
H      10.47       6.17       0.46
H       3.39       7.20      12.66
H       3.62      12.82       5.40
H      10.23       0.55       7.73
H       4.59       6.99      10.85
C       7.12       4.08       6.59
C       1.31       7.16       7.01
C      12.54       6.21       6.12
C      10.91       7.84       7.65
C       2.95       5.53       5.47
C      12.27       7.98       7.78
C       1.59       5.39       5.34
C       6.74       9.30       6.54
C      11.13       6.14       6.06
C       2.72       7.23       7.06
C       6.73       6.78      10.67
C       7.12       6.60       2.45
C       7.07       2.58       6.63
C       6.78      10.80       6.49
C       6.72       6.72       9.17
C       8.31       6.39       0.34
C       5.54       6.98      12.79
C       5.69      12.92       6.03
C       8.16       0.45       7.09
C       7.14       6.65       3.96
C       8.32       6.45       1.72
C       5.54       6.92      11.40
C       5.65      11.54       6.12
C       8.21       1.83       7.00
C       5.91       6.69       1.79
C       7.94       6.68      11.34
C       7.97      11.45       6.80
C       5.89       1.92       6.33
C       5.85       6.63       0.38
C       8.01       6.74      12.75
C       8.06      12.86       6.76
C       5.80       0.51       6.36
C      10.59       6.52      12.83
C       3.27       6.85       0.29
C       3.33       0.45       5.57
C      10.52      12.92       7.55
N       3.50       6.45       6.32
N      10.36       6.92       6.80
O       5.99       4.67       6.54
O       5.59       8.74       6.52
O       5.59       6.74       8.58
O       8.27       6.63       4.54
O       8.27       4.63       6.61
O      10.85       6.50      11.63
O       3.00       6.87       1.49
O       3.12       1.65       5.38
O       7.86       8.70       6.59
O      10.74      11.72       7.74
O       7.85       6.66       8.60
O       6.00       6.71       4.52
