50

Zn       3.89       5.48       5.71
Zn       6.64       5.38       5.47
H       3.17       1.36       5.02
H       7.22       9.48       6.82
H       6.84       1.30       4.20
H       7.34       9.82       4.32
H       6.82       4.77       1.25
H       3.76       5.14       1.09
H       4.75       6.28      10.20
H       1.66       6.68       4.09
H       1.31       5.26       6.63
H       8.94       7.22       4.67
H       3.39       1.05       6.74
H       9.19       4.45       5.58
H       3.51       9.63       6.24
H       3.63       9.93       4.51
H       5.22       1.23       3.49
H       5.88       9.78       3.33
H       7.11       0.95       6.68
H       5.73       1.07       7.77
H       5.66       9.64       7.63
C       5.33       5.62       8.20
C       5.53       9.56       5.46
C       6.30      10.16       4.27
C       6.25       9.99       6.77
C       5.86       4.90       0.75
C       4.77       5.08       1.52
C       6.29       4.91      10.46
C       5.46       5.64       9.68
C       1.13       6.21       4.93
C       9.44       6.29       4.97
C       5.33       2.83       5.73
C       4.86       5.21       2.99
C       5.51       8.03       5.39
C       3.79       0.81       5.74
C       4.11      10.15       5.48
C       5.85       0.85       4.31
C       6.06       0.67       6.80
C       5.24       1.31       5.66
Br       7.58       3.70       9.73
N       1.84       5.64       5.83
N       8.69       5.31       5.33
O       4.14       5.64       7.76
O       6.40       5.62       7.51
O       4.24       3.49       5.79
O       6.50       3.35       5.71
O       3.76       5.36       3.62
O       6.03       5.16       3.52
O       4.39       7.45       5.51
O       6.64       7.44       5.25
