96

Zn      14.55       4.43      10.34
Zn      14.57       4.44      13.26
Zn       2.35      11.77       5.40
Zn       2.34      11.75       2.47
H      13.09       5.84       7.81
H       7.79       0.77       0.06
H       3.81      10.35       7.93
H       9.11      15.43      15.68
H       5.06       2.86       7.98
H      16.54      13.86      15.62
H      11.85      13.33       7.76
H       0.37       2.34       0.11
H       4.57       3.49       5.31
H      10.51       9.19       2.56
H      12.34      12.70      10.43
H       6.39       7.01      13.18
H       3.10       7.47       5.95
H       6.60      10.82       1.92
H      13.80       8.72       9.79
H      10.31       5.38      13.81
H       1.56       7.54       1.95
H       6.59      12.36       5.92
H      15.35       8.65      13.79
H      10.31       3.83       9.81
H       1.46       5.03       1.95
H       9.11      12.35       5.92
H      15.44      11.16      13.79
H       7.80       3.84       9.82
C       2.84       5.12       7.52
C       8.95      10.98       0.35
C      14.07      11.07       8.22
C       7.95       5.21      15.39
C       4.38       3.58       7.54
C      10.43       9.38       0.32
C      12.53      12.61       8.19
C       6.48       6.82      15.41
C       4.15       3.88       6.23
C      10.14       9.62       1.64
C      12.76      12.31       9.51
C       6.77       6.57      14.10
C       2.66       5.54       5.08
C       8.54      11.18       2.79
C      14.25      10.65      10.66
C       8.36       5.02      12.95
C       2.71       6.94       5.08
C       7.15      11.19       2.79
C      14.20       9.26      10.66
C       9.76       5.00      12.95
C       2.29       7.66       3.96
C       6.44      11.64       3.91
C      14.62       8.53      11.77
C      10.46       4.55      11.83
C       1.85       6.97       2.83
C       7.15      12.05       5.04
C      15.05       9.22      12.91
C       9.75       4.15      10.69
C       1.80       5.58       2.83
C       8.54      12.03       5.04
C      15.10      10.61      12.91
C       8.36       4.16      10.69
C       2.18       4.84       3.96
C       9.27      11.63       3.91
C      14.73      11.35      11.78
C       7.64       4.56      11.83
C       2.00       3.34       3.94
C      10.77      11.74       3.93
C      14.90      12.85      11.80
C       6.14       4.45      11.81
C       2.33       9.16       3.98
C       4.94      11.67       3.88
C      14.58       7.03      11.75
C      11.97       4.53      11.85
N       3.56       4.36       8.33
N      15.11      15.43      15.27
N      13.35      11.83       7.40
N       1.80       0.77       0.47
N       3.17       4.86       6.22
N       9.20      10.64       1.65
N      13.74      11.33       9.51
N       7.71       5.55      14.09
O      12.62       2.80       5.02
O      10.86       1.10       2.85
O       4.28      13.40      10.72
O       6.05      15.09      12.89
O       2.24       2.76       2.84
O      11.34      11.47       5.03
O      14.66      13.43      12.90
O       5.57       4.72      10.70
O       2.02       9.75       2.90
O       4.37      12.00       4.97
O      14.89       6.44      12.84
O      12.54       4.19      10.77
O       2.64       9.72       5.08
O       4.37      11.37       2.79
O      14.26       6.47      10.66
O      12.54       4.82      12.95
