214

Zn       9.99      15.21       0.07
Zn      10.13       5.93      14.63
Zn       2.10       1.31       0.51
Zn      26.23       6.77      16.53
Zn      18.88      13.10       7.13
Zn      19.62      11.70       9.96
Zn      20.36      10.32       7.16
Zn      17.29      10.50       8.08
H      20.11      17.71      14.53
H      20.76      18.77      13.23
H      18.02      19.13      12.86
H      18.07      17.43      13.38
H      20.13      17.86       9.21
H       8.76       4.00       6.68
H       7.50       6.15       6.94
H       8.90       6.65      10.80
H      10.11       4.49      10.75
H      20.52      16.53      10.63
H      19.87      15.96      12.15
H      18.02      16.44       9.74
H      17.70      15.47      11.20
H      11.96      14.60       4.02
H      12.64      16.25       4.17
H      14.35      15.29       2.26
H      13.95      13.76       3.06
H      16.42      16.75       5.84
H       9.67       2.67       3.23
H       9.61       3.53       0.87
H       5.69       2.26       0.40
H       5.61       1.32       2.65
H      15.51      15.09       6.36
H      13.78      14.99       6.04
H      14.88      12.73       4.67
H      13.98      12.69       6.19
H      24.26      13.92       0.87
H      23.62      15.59       1.04
H      25.31      15.67       3.14
H      25.11      13.90       3.11
H      21.11      15.95       4.47
H      12.41       3.38       5.79
H      14.04       5.26       5.43
H      15.69       3.36       2.14
H      14.19       1.43       2.37
H      21.37      14.17       3.70
H      22.61      13.09       3.07
H      22.91      14.22       5.89
H      23.55      12.68       5.25
H      16.86      10.42      13.14
H      16.85       8.82      12.42
H      14.63      10.23      11.20
H      14.55      10.56      12.94
H      13.17       6.21      12.24
H      11.34       5.60       8.19
H      11.42       6.63       5.92
H      14.92       8.65       6.82
H      14.94       7.79       9.14
H      14.25       6.82      13.77
H      15.47       8.04      14.12
H      13.08       9.52      14.37
H      14.08       8.91      15.68
H      23.35       8.32       9.73
H      21.91       7.95      10.66
H      22.77      10.20      12.04
H      24.32       9.54      11.51
H      23.31       7.12      15.10
H      13.04       4.02       1.24
H      11.51       5.99       1.42
H      18.77      11.26      14.60
H      20.30       9.34      14.22
H      23.30       6.19      13.36
H      23.14       6.56      11.65
H      25.54       7.45      11.66
H      25.34       5.74      11.85
H      16.99       6.83       5.65
H      18.61       6.33       6.16
H      19.39       7.85       4.07
H      17.77       7.41       3.45
H      20.48       3.68       3.18
H       6.25       4.51       2.93
H       7.87       6.32       3.52
H      23.77       8.01       6.21
H      22.01       6.33       5.67
H      18.53       3.73       3.56
H      17.21       4.90       3.50
H      19.07       5.35       1.24
H      17.32       5.06       1.20
C      19.60      19.79      14.68
C      19.88      18.55      13.86
C      18.66      18.24      12.94
C      19.11      17.89      11.55
C      19.55      19.67       8.49
C       9.51       4.07       8.70
C       8.78       4.56       7.61
C       8.09       5.76       7.76
C       8.85       6.03       9.91
C       9.53       4.82       9.89
C      19.60      16.50      11.24
C      18.48      15.77      10.48
C      18.94      14.53       9.74
C      11.84      15.83       2.27
C      12.56      15.37       3.52
C      13.99      14.85       3.19
C      14.94      15.28       4.28
C      16.91      18.25       4.55
C       7.66       1.89       3.12
C       8.78       2.56       2.61
C       8.73       3.03       1.30
C       6.58       2.32       1.02
C       6.53       1.78       2.30
C      14.77      14.69       5.66
C      14.85      13.14       5.69
C      16.10      12.61       6.38
C      25.70      15.49       0.66
C      24.46      14.91       1.28
C      24.65      14.86       2.83
C      23.33      15.06       3.52
C      21.42      17.95       4.37
C      13.20       2.23       4.14
C      13.14       3.34       4.99
C      14.05       4.38       4.78
C      14.97       3.34       2.96
C      14.13       2.23       3.09
C      22.43      13.89       3.80
C      22.69      13.36       5.23
C      21.48      12.68       5.82
C      17.21      10.35      11.04
C      16.48       9.85      12.28
C      14.94       9.87      12.18
C      14.34       8.50      12.38
C      13.00       5.98      10.22
C      13.12       6.63       8.87
C      12.14       6.30       7.93
C      12.20       6.87       6.66
C      14.12       7.99       7.16
C      14.14       7.49       8.47
C      14.43       7.90      13.76
C      13.51       8.60      14.80
C      12.33       7.77      15.25
C      21.77       9.74       9.65
C      22.63       8.76      10.42
C      23.27       9.28      11.72
C      23.20       8.30      12.85
C      21.98       8.20      16.20
C      21.08       9.39      16.25
C      12.45       4.35       0.38
C      11.58       5.44       0.48
C      19.42      10.91      15.41
C      20.28       9.83      15.19
C      23.64       6.88      12.58
C      25.15       6.70      12.35
C      26.01       6.70      13.60
C      18.31       8.39       6.33
C      18.06       7.09       5.58
C      18.59       7.11       4.13
C      19.15       5.78       3.72
C       3.78       4.18       3.83
C       4.71       5.28       4.24
C       5.98       5.28       3.65
C       6.88       6.29       3.99
C      23.96       7.23       5.47
C      22.98       6.28       5.18
C      18.24       4.72       3.17
C      18.26       4.69       1.61
C      18.55       3.32       1.03
N      19.04      18.85      10.69
N      19.54      18.67       9.45
N       8.11       6.50       8.89
N      15.67      16.29       3.95
N      16.40      16.99       4.85
N       7.66       2.93       0.50
N      23.05      16.29       3.79
N      21.85      16.63       4.30
N      14.97       4.39       3.79
N      13.86       7.95      11.31
N      13.35       6.69      11.35
N      13.17       7.70       6.26
N      22.71       8.75      13.96
N      22.66       7.91      15.03
N      19.34      11.59      16.56
N      20.43       5.65       3.90
N      21.00       4.45       3.63
N       6.62       7.26       4.88
O       9.46       5.95      16.47
O      19.71      20.91      14.07
O      19.22      19.62      15.88
O      11.01       2.68       7.46
O      19.47      13.60      10.43
O      18.74      14.53       8.48
O      12.18      16.97       1.82
O      10.97      15.04       1.77
O       8.15       2.11       5.46
O      15.96      11.57       7.10
O      17.19      13.25       6.16
O      25.71      16.76       0.50
O      26.67      14.69       0.40
O      20.24      18.18       4.65
O      21.58      11.44       6.11
O      20.44      13.41       5.99
O      16.62      10.22       9.91
O      18.38      10.81      11.23
O      12.56       4.83      10.36
O      11.93       7.97      16.45
O      11.80       6.96      14.41
O      21.34      10.79      10.24
O      21.50       9.39       8.46
O      13.58       1.72       0.07
O       8.71       6.62      13.42
O      25.41       6.76      14.73
O      19.41       8.98       6.09
O      17.42       8.76       7.17
O       4.20       3.03       3.62
O      17.74       2.87       0.16
O      19.61       2.72       1.45
O      19.03      11.41       8.11
