178

Zn      12.80      14.76       8.67
Zn      18.62      -5.05       9.19
Zn      -3.09      -6.41      11.41
Zn      -1.91      -5.30       8.73
Zn      -3.15      13.10       0.77
Zn      12.86      -0.68      17.10
Zn      -1.97      10.13       0.31
Zn      18.68      10.42       0.83
H     -10.00       4.67      18.30
H     -10.00       6.87      17.12
H      12.72       4.86      13.43
H      12.71       2.67      14.63
H     -10.16      10.73      15.05
H     -10.17      12.93      13.86
H      12.89      10.90      10.12
H      12.87       8.70      11.31
H      18.10       6.85       2.89
H      18.09       4.66       4.09
H      -1.38       4.26       3.37
H      -1.39       6.46       2.18
H      18.13       0.88       6.31
H      18.14      -1.31       7.52
H      -1.43      -1.86       6.51
H      -1.42       0.34       5.33
H       0.00      14.58       2.99
H       2.10      15.24       4.18
H       3.85      11.42       3.19
H       1.75      10.78       1.98
H       5.84      16.43       6.13
H       7.94      17.07       7.32
H       9.56      13.15       6.61
H       7.46      12.50       5.41
H       9.71      -1.74      14.65
H       7.61      -2.38      13.45
H       5.87      -3.63      17.19
H       7.96      -2.96      18.38
H       3.87      -3.37      11.39
H       1.77      -4.01      10.20
H       0.16      -5.56      13.88
H       2.25      -4.90      15.08
H      -4.88      15.94       6.71
H      16.60      10.40       5.07
H      -5.68      16.53       2.79
H      13.39      12.77       4.43
H      -3.68      -3.93      15.38
H      15.40      -0.51      13.12
H      -6.89      -5.76      17.02
H      14.59      -4.12      11.48
C      10.12      15.53       7.74
C      -5.42      -4.75      12.11
C     -10.50      13.34      11.21
C      -0.41      -5.21      11.26
C      15.13      15.07       6.89
C      -3.50      -3.02       7.79
C      13.21       2.23      17.24
C      15.13      -2.42      16.39
C      -0.49      12.26       1.71
C      20.21       8.09       1.76
C      18.29      12.74       2.61
C      10.21      -1.93      17.29
C      15.95      14.47       5.79
C      17.47      13.35       3.72
C      -6.66      15.17       5.26
C      16.36      12.65       4.22
C      -5.89      14.60       4.24
C      15.61      13.20       5.28
C      -6.24      -4.14      13.22
C      -7.76      -3.02      15.29
C      -5.90      -4.41      14.56
C      15.60      -2.78      13.95
C      -6.65      -3.82      15.59
C      16.38      -3.32      12.91
C      13.21       3.54      16.53
C     -10.22       4.73      17.24
C     -10.22       5.95      16.58
C     -10.50       6.01      15.19
C      12.93       4.82      14.49
C      12.93       3.60      15.16
C     -10.50       7.25      14.52
C     -10.50       8.33      13.93
C     -10.50       9.57      13.26
C     -10.31      10.77      13.98
C     -10.31      11.99      13.31
C     -10.50      12.04      11.92
C      13.03      10.84      11.20
C      13.02       9.62      11.86
C      20.21       6.78       2.47
C      19.02       6.27       3.00
C      19.01       5.05       3.67
C      20.21       4.31       3.81
C      -2.30       4.83       3.26
C      -2.31       6.06       2.60
C      20.21       3.07       4.48
C      20.21       2.00       5.07
C      20.21       0.76       5.74
C      19.03       0.28       6.36
C      19.04      -0.94       7.03
C      -3.50      -1.71       7.08
C      -2.33      -1.25       6.46
C      -2.32      -0.03       5.80
C       0.76      12.64       2.42
C       0.85      13.90       3.04
C       2.02      14.26       3.70
C       3.11      13.37       3.76
C       3.00      12.10       3.14
C       1.84      11.75       2.47
C       4.30      13.73       4.44
C       5.32      14.05       5.02
C       6.51      14.42       5.69
C       6.66      15.71       6.24
C       7.82      16.07       6.90
C       8.87      15.15       7.03
C       8.73      13.86       6.50
C       7.57      13.50       5.83
C       8.96      -2.32      16.58
C       8.86      -2.15      15.19
C       7.69      -2.51      14.53
C       6.60      -3.04      15.24
C       6.71      -3.21      16.64
C       7.87      -2.84      17.30
C       5.41      -3.41      14.57
C       4.39      -3.73      13.99
C       3.20      -4.09      13.31
C       3.06      -3.85      11.93
C       1.89      -4.21      11.27
C       0.84      -4.82      11.97
C       0.98      -5.08      13.34
C       2.14      -4.71      14.01
C      -6.36      16.60       5.67
C      15.86      11.37       3.58
C      -4.61      15.31       3.83
C      14.54      12.35       5.92
C      -4.83      -5.41      14.93
C      14.32      -2.04      13.58
C      -6.15      -3.98      17.01
C      16.08      -2.89      11.49
O      20.21      -6.16       9.50
O      11.00      14.62       7.92
O      17.74      -4.80      10.97
O     -10.37      14.39      11.93
O      10.22      16.75       8.13
O      13.09      13.31       9.94
O      -4.26      -5.15      12.42
O      -1.29      -5.85      11.93
O      -8.02      16.00       7.56
O      -0.51      -4.87      10.03
O      13.97      14.59       7.06
O      19.12      -3.36       8.38
O      -2.41      -3.69       7.76
O     -10.50      -1.00      19.00
O     -10.14       2.24      18.47
O      14.41      -1.42      16.08
O      -0.50      11.12       1.13
O      12.86       1.20      16.57
O      -1.46      13.09       1.74
O      -8.46      -2.96      17.54
O      -2.37       8.55       1.37
O      18.17      11.49       2.44
O      19.08       8.66       1.58
O      -4.69      13.55       1.94
O      11.17      -1.50      16.57
O      10.21      -2.06      18.57
O      -5.28      16.79       6.46
O      -6.99      17.54       5.22
O      16.08      10.22       4.27
O      15.20      11.39       2.57
O      -4.75      16.40       3.04
O      -3.53      14.99       4.28
O      13.38      12.21       5.23
O      14.75      11.72       6.93
O      -3.67      -4.91      15.41
O      -5.04      -6.60      14.90
O      14.46      -0.79      13.09
O      13.24      -2.60      13.60
O      -6.36      -5.18      17.61
O      -5.49      -3.12      17.55
O      14.99      -3.45      10.90
O      16.70      -2.00      10.95
