64

Zn       6.20       9.62       8.95
Zn       5.92       6.86       9.00
H       1.54       6.70       8.92
H      10.58       9.78       9.03
H       6.53      10.43      15.74
H       5.59       6.06       2.22
H       6.48      10.41      13.23
H       5.64       6.07       4.73
H       5.74       6.18      13.28
H       6.37      10.30       4.68
H       8.61      13.89       7.46
H       3.50       2.60      10.49
H       8.06      11.43       7.52
H       4.05       5.06      10.43
H       5.20      11.97      10.45
H       6.92       4.51       7.50
H       5.62      14.46      10.54
H       6.50       2.03       7.42
H       5.58       5.24      15.34
H       6.53      11.25       2.61
C       6.04       8.22       6.34
C       6.07       8.27      11.61
C       6.17       8.34      17.34
C       5.94       8.15       0.61
C       7.85      13.50       8.14
C       4.27       2.98       9.82
C       7.55      12.15       8.16
C       4.57       4.34       9.79
C       5.94      12.45       9.81
C       6.18       4.03       8.15
C       6.17      13.82       9.85
C       5.94       2.66       8.10
C       7.14      14.37       8.99
C       4.97       2.11       8.96
C       7.39      15.77       8.98
C       4.72       0.72       8.97
C       8.65       7.87       8.95
C       3.46       8.61       9.01
C      10.13       7.72       8.95
C       1.98       8.76       9.00
C       6.35       9.50      15.19
C       5.76       6.98       2.77
C       6.33       9.50      13.80
C       5.79       6.99       4.15
C       6.10       8.30      13.11
C       6.01       8.19       4.84
C       5.91       7.11      13.83
C       6.21       9.37       4.12
C       5.93       7.12      15.22
C       6.19       9.37       2.73
C       6.15       8.32      15.93
C       5.97       8.16       2.02
N       6.60      11.64       8.97
N       5.51       4.85       8.98
O       6.16       9.36       6.90
O       5.96       7.12      11.05
O       5.95       7.10       6.95
O       6.17       9.38      11.01
O       8.18       9.05       8.93
O       3.94       7.43       9.03
O       7.98       6.79       8.97
O       4.14       9.69       8.98
O       5.73       5.98      15.96
O       6.38      10.51       2.00
