144

Zn      -3.94      -3.62       8.72
Zn      -8.51      12.76       6.83
Zn       2.46      16.37       0.04
Zn       3.91      -7.56      15.25
Zn       3.90       3.95       8.51
Zn       2.36       5.12       6.63
H       5.26      13.43       5.00
H      13.15      -0.83       2.30
H      11.20      -0.40       3.89
H       8.07       9.09       8.39
H       6.69       7.03       8.05
H       3.30       9.48       7.08
H      -5.71      10.13       8.94
H      -0.63      -6.42      13.70
H      -1.91      -5.27      11.88
H      -1.24      -0.76       5.61
H       0.12       1.33       5.33
H       0.27       1.78       9.61
H      -1.29      -0.16       9.87
H       7.48       3.94       2.25
H       5.91       4.79       4.01
H       5.92       0.91       5.88
H       7.29       0.01       3.98
H       1.36       9.02      12.73
H      -0.15       4.71      10.79
H      -1.60       5.94      12.43
H       4.17      13.60       3.00
H      11.95      -2.14       6.00
H      10.28      -1.80       4.44
H       8.70      15.47       3.46
H       8.23      13.94       2.75
H       7.01      15.29       1.23
H      11.65       0.77       5.87
H      12.36      -0.08       7.26
H      13.24       1.26       6.50
H      14.22      -0.94       5.83
H      13.57      -0.10       4.43
H       3.00      11.62       9.27
H      10.62      -5.09       9.72
H       9.36      -4.19       8.84
H       5.10      12.69       7.28
H       3.60      11.87       6.83
H      -2.92      10.09       9.44
H      -2.44       9.99      11.14
H      -2.01       8.67      10.03
H      -3.95       7.98      11.45
H      -4.44       8.10       9.76
H       4.62      11.03       4.81
H       4.88      10.93       3.06
H       5.78       9.87       4.16
H       7.24      11.78       3.36
H       7.04      11.73       5.10
H       5.11      12.28       1.48
H       6.62      12.92       1.59
H       3.07      10.03      11.56
H       3.82       9.01      12.80
H       4.73       9.47      11.35
H       4.00       7.12      11.11
H       3.21       8.13       9.92
C       7.35      11.59       8.19
C       5.41      15.33       2.70
C      11.26      -1.49       4.05
C       6.87      15.61       2.27
C       7.01       9.16       8.15
C       6.26       8.02       7.94
C       4.92       8.14       7.54
C       4.34       9.41       7.41
C       5.06      10.58       7.70
C       6.42      10.43       8.05
C      -5.92      10.33       9.99
C       8.02      13.96       5.57
C      -5.21       9.66      10.99
C      -5.51       9.97      12.33
C      -0.42      -6.63      12.66
C      -1.12      -5.99      11.65
C      -6.91      11.27      10.31
C      -0.94      -0.16       6.48
C      -0.18       0.99       6.32
C       0.28       1.67       7.46
C      -0.11       1.25       8.74
C      -0.96       0.16       8.89
C      -2.11      -1.85       7.92
C      -1.34      -0.58       7.76
C       8.24       1.36       1.86
C       4.45      15.94       1.70
C      -1.12       8.28      13.57
C      -4.70       9.41      13.46
C       2.19       5.44       9.83
C       4.15       6.89       7.30
C       4.88       3.39       6.08
C       1.26       2.79       7.34
C       7.11       3.28       3.03
C      -7.62      12.02       9.24
C       6.25       3.75       4.02
C       5.82       2.89       5.04
C       6.25       1.56       5.06
C       7.02       1.06       4.02
C       7.46       1.93       3.00
C       1.06       8.07      12.31
C       1.90       7.38      11.43
C       1.43       6.17      10.89
C       0.18       5.65      11.24
C      -0.63       6.33      12.13
C       5.99      13.38       4.18
C      -0.20       7.55      12.65
C       5.24      13.81       2.86
C      12.39      -1.82       5.05
C       7.82      14.85       3.22
C       7.07      14.47       4.51
C      13.29      -0.60       5.36
C      12.60       0.39       6.30
C       4.38      11.92       7.61
C       3.75      12.35       8.94
C      -4.11       8.69      10.63
C      -2.79       9.40      10.29
C       6.50      11.93       4.16
C       5.38      10.89       4.04
C       3.25       7.92      11.00
C       3.74       9.18      11.72
N       5.62      13.14       1.61
O      13.16      -4.96       8.99
O       9.19       2.08       1.36
O       3.41      15.27       1.33
O      10.80      -0.40       1.32
O      -2.19       7.68      13.90
O      -0.81       9.47      13.97
O      -5.01       8.24      13.92
O       2.33      -7.37      13.89
O       3.20       4.71      10.17
O       1.75       5.57       8.64
O       4.57       5.85       7.90
O       8.41      11.51       7.49
O       3.12       6.92       6.53
O       5.11       3.04       7.30
O       3.92       4.12       5.69
O       2.25       2.76       8.13
O       1.04       3.70       6.45
O      13.83      -3.32       6.79
O       9.06      13.29       5.21
O      -3.05      -1.88       8.80
O      -1.77      -2.81       7.17
O      -2.42      -4.68       9.60
O      -7.29      11.80       8.01
O       7.91       0.21       1.47
