92

Al       0.09      14.40       0.00
Al       0.09      14.40      16.63
H       2.00      12.88       8.47
H       2.00      15.92       8.16
H       2.00      22.23      19.39
H       2.00      20.98      22.19
H       2.00      36.90      22.03
H       2.00      35.11      19.55
C       2.11      30.50      23.80
C       2.11      14.55       2.04
C       2.11      26.96      24.06
C       2.11      14.25      14.59
C       2.11      16.24      17.52
C       2.11      12.71      17.78
C       2.07      14.19      13.09
C       1.56      15.26      12.35
C       1.48      15.20      10.95
C       1.97      14.08      10.24
C       2.50      13.01      11.01
C       2.52      13.05      12.41
C       1.94      13.92       8.79
C       1.94      14.89       7.84
C       2.50      15.80       5.62
C       1.97      14.72       6.39
C       1.47      13.60       5.68
C       1.56      13.54       4.28
C       2.06      14.62       3.54
C       2.52      15.76       4.22
C       2.07      17.58      18.22
C       1.56      17.68      19.52
C       1.48      18.92      20.16
C       1.97      20.10      19.55
C       2.50      19.97      18.24
C       2.52      18.73      17.57
C       1.94      21.44      20.13
C       1.94      21.77      21.45
C       2.50      23.24      23.34
C       1.97      23.11      22.03
C       1.48      24.29      21.42
C       1.56      25.53      22.06
C       2.07      25.63      23.36
C       2.52      24.48      24.01
C       2.07      11.44      18.59
C       1.56      39.07      18.02
C       1.48      37.89      18.78
C       1.97      37.83      20.11
C       2.50      39.04      20.65
C       2.52      40.23      19.91
C       1.94      36.66      20.97
C       1.94      35.36      20.61
C       2.50      32.98      20.93
C       1.97      34.18      21.47
C       1.48      34.12      22.80
C       1.56      32.94      23.55
C       2.07      31.77      22.99
C       2.52      31.78      21.67
Cl       3.12      11.73      13.33
Cl       3.16      11.62      10.23
Cl       1.03      16.66      13.20
Cl       0.71      16.52      10.15
Cl       0.71      12.29       6.48
Cl       1.03      12.14       3.43
Cl       3.16      17.18       6.40
Cl       3.12      17.08       3.30
Cl       3.12      18.60      15.96
Cl       3.16      21.34      17.42
Cl       1.03      16.24      20.30
Cl       0.71      18.95      21.70
Cl       0.71      24.25      19.87
Cl       1.03      26.96      21.28
Cl       3.16      21.87      24.16
Cl       3.12      10.20       0.67
Cl       3.12      12.88      20.60
Cl       3.16      39.06      22.24
Cl       1.03      10.30      16.39
Cl       0.71      36.54      18.04
Cl       0.71      35.47      23.54
Cl       1.03      18.50       0.24
Cl       3.16      32.96      19.34
Cl       3.12      30.33      20.98
O       1.16      27.22      24.86
O       1.16      29.67      23.62
O       1.16      15.12       1.41
O       3.08      27.73      23.78
O       3.08      13.93       1.52
O       3.08      30.36      24.60
O       1.16      13.54      17.96
O       1.16      13.68      15.22
O       1.16      15.99      16.72
O       3.08      12.85      16.98
O       3.08      15.48      17.80
O       3.08      14.87      15.11
