306

Zn       7.78       7.77       6.08
Zn       7.88       3.35      16.76
Zn       8.73       7.05      12.03
Zn       6.89       4.06      10.80
Zn       1.73       0.16      11.64
Zn       1.63       4.58       0.96
Zn       0.78       0.87       5.69
Zn       2.62       3.87       6.92
H       4.49       4.82      10.42
H       4.49       3.75      11.64
H       9.25       1.88       3.02
H       5.11       2.52      17.55
H       4.94       7.66       4.91
H       2.87       9.00       5.12
H       4.20      -1.72       7.45
H       8.39      -2.19       8.35
H       3.70      13.09       7.16
H       4.32       0.66       8.19
H       9.29       0.13       1.95
H      10.71      -5.56      13.05
H       6.92       2.53      13.69
H       1.14       9.77       6.19
H       8.12      10.01      12.54
H       9.08       4.06       4.19
H       2.23       8.86      12.59
H       8.18      15.03       0.10
H       9.11      -4.86      14.38
H       9.00       5.92      15.06
H       5.07      11.67       7.73
H       5.96       6.46      12.74
H       3.87       7.64      13.25
H       6.80       5.06       7.73
H       8.91       8.43       9.11
H       2.28      13.83       0.39
H       5.01       1.94       2.31
H       9.07      -2.85      14.62
H       3.95      12.62       0.65
H       4.79      -3.23      14.97
H      -2.83       3.38      17.48
H       8.46       0.12       9.22
H       4.84       4.12       3.51
H       3.59      -0.03       1.60
H       7.08      10.26       7.32
H       8.94      -0.52      15.45
H       4.66      -0.83      15.70
H       0.40      13.06       0.24
H       6.19      16.31       0.83
H      -3.36      16.24       0.97
H      -2.00       7.15      12.68
H       0.30       7.97      13.18
H       3.59      -4.90      12.61
H       1.31      -5.75      11.98
H      -4.34      11.78       7.85
H      -2.01      12.68       7.89
H      -0.75       9.50       5.26
H      -3.09       8.65       5.19
H       5.02       3.11       7.29
H       5.02       4.18       6.07
H       0.26       6.04      14.70
H       4.41       5.40       0.16
H       4.57       0.27      12.81
H       6.64      -1.07      12.60
H       5.31       9.65      10.27
H       1.13      10.12       9.37
H       5.82      -5.16      10.56
H       5.19       7.27       9.52
H       0.22       7.79      15.77
H      -1.20      13.49       4.66
H       2.59       5.39       4.03
H       8.38      -1.85      11.53
H       1.39      -2.08       5.18
H       0.43       3.87      13.53
H       7.28      -0.94       5.13
H       1.33      -7.10      17.62
H       0.40      12.79       3.34
H       0.51       2.01       2.66
H       4.44      -3.74       9.99
H       3.55       1.46       4.98
H       5.64       0.28       4.47
H       2.71       2.87       9.99
H       0.60      -0.50       8.61
H       7.23      -5.90      17.32
H       4.51       5.99      15.41
H       0.44      10.78       3.10
H       5.57      -4.69      17.06
H       4.72      11.15       2.75
H      12.34       4.55       0.24
H       1.05       7.81       8.50
H       4.67       3.81      14.20
H       5.92       7.95      16.12
H       2.43      -2.34      10.40
H       0.58       8.45       2.27
H       4.85       8.75       2.02
H       9.12      -5.14      17.47
H       3.32      -8.39      16.89
H      12.88      -8.31      16.75
H      11.51       0.78       5.04
H       9.21      -0.04       4.54
H       5.92      12.83       5.11
H       8.20      13.67       5.74
H      13.85      -3.85       9.87
H      11.52      -4.76       9.83
H      10.27      -1.58      12.46
H      12.60      -0.73      12.53
C       3.78      10.48       6.44
C       8.28       2.36       3.12
C       6.00      12.57       0.11
C       4.93       8.57       5.51
C       6.40       0.54       8.75
C       6.28      -2.12       7.82
C       3.77       9.32       5.65
C       6.81       5.41       4.83
C       5.14      -1.30       7.80
C       7.48      -1.58       8.31
C       2.71      12.64       7.07
C       8.15      -6.56      13.46
C       5.20       0.02       8.23
C       8.33      -0.31       1.72
C       6.01      10.27      13.03
C       3.64      15.33       1.15
C       6.19      -3.52       7.35
C       7.46       3.48      13.71
C       1.28      10.81       6.47
C       7.15       9.54      12.74
C       8.19       3.58       3.78
C       6.97      -4.58      14.20
C      -0.15      15.06       0.93
C       2.58      11.32       6.65
C       6.93      -3.21      14.75
C       6.94       4.20       3.97
C       7.14       0.39       1.98
C       2.29       9.82      13.09
C       6.46       1.94       9.25
C       7.12       1.74       2.61
C       7.21      14.55       0.24
C       8.17      -5.29      14.03
C       8.51       5.20      14.40
C       4.99      10.82       7.05
C       5.96       7.55      12.83
C       4.78       8.22      13.11
C       7.35       5.75       8.35
C       8.42       7.46       9.06
C       2.37      14.80       0.87
C       5.89       2.41       2.74
C       4.78       9.62      13.21
C       8.10      -2.44      14.89
C       1.22      15.55       1.18
C       5.75      -6.35      13.31
C      -2.78      14.27       0.32
C       0.18      11.63       6.75
C       4.85      13.21       0.54
C       5.70      -2.63      15.08
C      -1.72      13.37       0.15
C       7.54      -0.28       8.79
C       5.80       3.61       3.42
C      -1.24      15.92       1.18
C       6.11      10.03       6.86
C       8.03      -1.12      15.33
C       5.62      -1.30      15.49
C      -0.42      13.77       0.43
C       6.09      15.24       0.66
C       9.80       9.58       6.61
C       4.86      14.59       0.80
C       6.79      -0.53      15.61
C      -2.53      15.54       0.85
C       6.71       0.93      15.94
C       9.96       4.93      17.59
C      -2.79       9.11      12.31
C      -1.77       8.21      12.64
C      -0.49       8.68      12.92
C      -0.21      10.06      12.94
C       3.38      -5.97      12.60
C      -2.51      10.48      12.27
C      -4.18       8.62      12.04
C      -3.54      11.30       7.28
C      -2.25      11.80       7.31
C      -1.21      11.14       6.61
C      -1.53      10.01       5.84
C      -2.83       9.53       5.79
C      -3.85      10.15       6.53
C       5.74      -2.55      11.28
C       1.24       5.57      14.60
C       3.51      -4.65      17.61
C       4.58      -0.64      12.21
C       3.11       7.38       8.97
C       3.23      10.04       9.90
C       5.74      -1.39      12.07
C       2.70       2.51      12.89
C       4.37       9.22       9.91
C       2.03       9.50       9.41
C       6.80      -4.72      10.65
C       1.36      14.49       4.26
C       4.31       7.90       9.48
C       1.19       8.24      16.00
C       3.50      -2.35       4.69
C       5.88      -7.41      16.57
C       3.33      11.45      10.37
C       2.05       4.45       4.00
C       8.23      -2.89      11.25
C       2.36      -1.61       4.98
C       1.32       4.34      13.94
C       2.54      12.51       3.52
C       9.66      -7.13      16.79
C       6.93      -3.39      11.07
C       2.58      11.14       2.97
C       2.57       3.73      13.75
C       2.37       7.54      15.73
C       7.22      -1.90       4.62
C       3.05       5.98       8.47
C       2.39       6.19      15.11
C       2.30      -6.62      17.48
C       1.34      13.21       3.68
C       1.00       2.72       3.31
C       4.52      -2.89      10.66
C       3.55       0.38       4.88
C       4.73      -0.30       4.61
C       2.16       2.18       9.36
C       1.09       0.47       8.66
C       7.14      -6.88      16.84
C       3.62       5.52      14.98
C       4.73      -1.69       4.51
C       1.41      10.36       2.83
C       8.29      -7.62      16.53
C       3.77      14.28       4.40
C      12.30      -6.34      17.40
C       9.33      -3.71      10.97
C       4.66      -5.28      17.18
C       3.82      10.55       2.63
C      11.23      -5.45      17.57
C       1.97       8.20       8.92
C       3.71       4.32      14.30
C      10.75      -7.99      16.54
C       3.40      -2.11      10.86
C       1.48       9.05       2.38
C       3.89       9.22       2.23
C       9.93      -5.84      17.29
C       3.42      -7.32      17.05
C      -0.29      -1.65      11.11
C       4.65      -6.66      16.92
C       2.72       8.46       2.11
C      12.04      -7.62      16.87
C       2.80       7.00       1.78
C      -0.45       2.99       0.13
C      12.30      -1.19       5.40
C      11.28      -0.29       5.07
C      10.00      -0.75       4.79
C       9.72      -2.13       4.78
C       6.13      13.90       5.12
C      12.02      -2.56       5.45
C      13.69      -0.69       5.67
C      13.06      -3.37      10.44
C      11.76      -3.87      10.41
C      10.72      -3.21      11.10
C      11.04      -2.08      11.88
C      12.35      -1.60      11.93
C      13.36      -2.22      11.19
N       6.09       8.92       6.10
N       7.57       5.55       9.65
N       5.78      -5.12      13.84
N       7.13       8.19      12.64
N       8.35       5.35      13.09
N       0.33      12.90       7.19
N       5.94      -0.15       1.72
N       7.68       4.24      12.65
N       8.26       6.65      10.11
N       6.27       4.23      17.66
N       7.86       6.93       7.95
N       7.96       4.04      14.83
N       3.42      -0.99      11.62
N       1.94       2.38       8.06
N       3.73      13.04       3.87
N       2.38      -0.26       5.08
N       1.16       2.57       4.63
N       9.18      -4.97      10.53
N       3.57       8.07      16.00
N       1.83       3.68       5.07
N       1.25       1.28       7.61
N       3.24       3.69       0.06
N       1.65       0.99       9.77
N       1.55       3.88       2.88
O       7.20       2.17      10.29
O       7.75       6.28       4.77
O       4.99       4.54      11.25
O       5.80       5.50       5.60
O       7.73       1.40      16.60
O       9.65       3.68      17.56
O       5.80       2.87       8.69
O       9.51       8.65       5.74
O       9.20       5.87      17.24
O       5.73       1.60      15.54
O       9.03       9.98       7.50
O      10.59       7.41      12.46
O      10.00       9.34      11.47
O       2.31       5.76       7.43
O       1.76       1.65      12.95
O       4.52       3.39       6.46
O       3.71       2.42      12.12
O       1.79       6.53       1.12
O      -0.14       4.25       0.16
O       3.71       5.06       9.03
O       0.00      -0.72      11.98
O       0.31       2.05       0.48
O       3.78       6.33       2.18
O       0.49      -2.06      10.21
O      -1.08       0.52       5.26
O      -0.49      -1.42       6.25
