198

Zr      -7.72       9.92      14.10
Zr       7.77       1.03       1.51
Zr      11.30       0.96       1.41
Zr     -11.25      10.00      14.20
Zr       0.03      14.46       1.46
Zr       0.03      -3.50      14.15
H       2.82      14.84       1.07
H      -2.76      14.96       1.24
H       9.57       3.19       1.16
H      -9.52      10.98      12.18
H       4.40       7.06       1.92
H      -4.09       4.06      13.89
H       1.42      10.31       1.24
H       2.51       8.08       1.19
H      -2.62      -0.11      13.48
H      -4.06       1.91      13.30
H       4.14      -0.73       7.11
H      -4.35      11.55       8.28
H       2.67      -1.74      11.17
H       4.11      -0.90       9.33
H      -1.37      13.28       5.44
H      -2.46      12.58       7.56
H       3.22       2.61      13.93
H      -3.45       8.50       1.86
H     -12.85       5.98      13.48
H       5.05       3.73      13.30
H      14.14       4.31       1.17
H      -3.43       6.38       1.10
H       3.50      12.09       6.95
H      -3.17      -1.26       8.46
H     -14.09      11.35      11.13
H       3.48      12.10       9.20
H      12.90       0.30       5.44
H      -5.00      -0.28       7.62
H       3.33       1.52       1.69
H     -15.44      10.06      13.75
H      -3.28       9.91      13.59
H      15.50       1.41       1.49
H      -7.33       5.17       7.02
H       7.38       6.11       8.35
H      -7.53       6.84      11.15
H      -7.43       5.26       9.25
H       7.58       2.78       5.40
H       7.47       4.04       7.53
C      -7.36       7.00      15.46
C       7.41      -1.23       3.81
C       7.24       3.85       0.03
C      -7.19      12.26      11.93
C      -4.95      11.02      15.41
C      -9.59       8.29      12.00
C       5.00       0.16       0.04
C       9.64       2.46       3.75
C       2.25      15.20       3.69
C       2.41      -1.74      15.45
C      -2.36      -4.14      12.06
C      -2.20      12.61       0.02
C      -3.03      -0.43      15.56
C      -6.71       5.66      15.38
C       5.71       5.58       1.09
C       4.90       6.70       1.02
C      -5.61       5.41      14.54
C      -4.97       4.18      14.51
C       2.28      10.13       0.60
C       2.90       8.89       0.57
C      -3.16       0.27      14.35
C      -3.96       1.40      14.26
C      -4.66       1.88      15.39
C      -5.42       3.14      15.34
C       6.76      -1.60       5.10
C       3.08      -3.81      10.78
C       5.66      -0.89       5.61
C       5.02      -1.28       6.78
C      -5.66      11.84       9.95
C      -4.85      12.28       8.92
C       3.21      -2.43      10.53
C       4.01      -1.97       9.49
C      -2.23      13.82       5.83
C      -2.85      13.43       7.01
C       5.47      -2.40       7.49
C       4.71      -2.87       8.66
C       3.22      -0.49      15.37
C     -12.29       5.74      15.53
C       2.85       0.59      14.56
C       3.58       1.77      14.53
C      -2.84      10.38       1.04
C      -3.43       9.13       0.97
C     -12.88       5.31      14.34
C     -13.46       4.05      14.25
C      13.84       5.15       0.55
C      14.60       6.32       0.52
C       4.74       1.90      15.32
C     -13.49       3.19      15.36
C      12.34      -1.72       4.97
C      -3.16      -3.64      10.91
C       2.90      13.49       5.44
C       3.48      13.14       6.65
C      -2.80      -2.52      10.15
C      -3.53      -2.10       9.05
C     -13.79      12.21      10.54
C     -14.55      12.63       9.45
C      12.93      -0.74       5.78
C      13.51      -1.07       7.00
C      13.54      -2.40       7.44
C      -4.69      -2.80       8.67
C       2.80       1.01       0.89
C       1.40       1.06       0.82
C       0.62       1.80       1.78
C     -16.04      10.62      14.48
C     -17.43      10.64      14.38
C       0.81       9.96      13.32
C      -2.75      10.50      14.33
C      -1.35      10.58      14.30
C      -0.56       9.92      13.28
C      16.09       0.91       0.73
C      17.48       1.01       0.74
C      -0.76       1.78       1.74
C      -5.93      -5.25      15.52
C      -8.74      -5.18      15.36
C       5.98      -5.38      15.34
C       8.79      -5.20      15.32
C       9.64       3.22       5.03
C      -9.59       7.34      10.86
C      10.77       3.88       5.54
C      10.73       4.63       6.71
C     -10.72       7.08      10.07
C     -10.68       6.23       8.97
C      -8.41       6.66      10.53
C      -8.36       5.79       9.45
C       8.46       3.30       5.78
C       8.41       4.03       6.96
C       9.53       4.73       7.43
C      -9.48       5.58       8.64
N       5.86       4.98       2.44
N      -5.02       6.46      13.68
N       5.07       0.27       4.91
N      -5.81      10.37      10.07
N       1.62       0.60      13.73
N      -2.29      10.75       2.37
N       2.35      12.36       4.65
N      -1.57      -1.74      10.42
N      12.07       3.87       4.82
N     -12.02       7.75      10.32
Cl      -1.68       2.67       2.89
Cl       1.44       2.72       2.98
Cl      -1.39       9.10      12.02
Cl       1.73       9.17      12.09
O      -7.06       7.85      14.56
O       7.11      -0.09       3.31
O       7.01       3.04       0.99
O      -6.96      11.09      12.38
O      13.38       0.61       0.81
O     -10.71       8.69      12.46
O     -13.33      10.44      14.72
O      10.77       2.17       3.22
O       1.41      14.37       3.19
O       1.50      -1.90      14.57
O      -1.45      -3.36      12.49
O      -1.36      12.80       0.96
O      12.14       2.97       0.82
O     -12.09      11.23      12.51
O     -11.98       7.93      14.69
O      12.03      -0.20       3.20
O      -5.55      10.33      14.52
O       8.49       2.17       3.28
O       5.60       0.77       0.99
O      -8.44       8.64      12.44
O       1.41      -3.44      12.40
O       1.29      12.72       0.85
O      -1.23      14.45       3.30
O      -1.36      -1.84      14.68
O      -9.50      10.98      13.15
O       9.55       2.28       0.83
O      -1.96      15.39       0.89
O       2.02      15.30       0.77
O       9.53      -0.03       1.81
O      -9.48       9.29      14.99
O      -1.44      -4.67      15.04
O       1.49      -4.73      14.95
O       6.96       5.13       3.00
O       4.86       4.44       2.93
O      -4.22       7.23      14.22
O      -5.31       6.43      12.48
O       4.27       0.02       4.01
O       5.36       1.39       5.35
O      -6.90       9.89       9.74
O      -4.81       9.73      10.42
O       0.57       0.90      14.30
O       1.77       0.37      12.53
O      -2.97      11.53       3.05
O      -1.24      10.20       2.71
O       3.02      11.98       3.69
O       1.30      11.85       5.06
O      -0.51      -2.18       9.95
O      -1.71      -0.68      11.03
O      12.22       4.68       3.90
O      -6.01       3.09       5.25
O     -12.17       8.89       9.86
O       6.06       7.09      10.91
