132

Al       6.78      24.09      12.53
Al       3.18       0.07      12.52
Al       0.49      12.01       0.02
Al       3.83      12.10       0.01
H       1.45       1.78      12.76
H       5.05      22.46      13.07
H       2.62      10.34      24.88
H       5.96      13.78      24.56
H       3.28       9.96       3.40
H       3.09       8.17       5.13
H       0.77       9.01       2.83
H       2.90       3.07       9.71
H       0.39       2.12       9.15
H       0.58       3.91       7.42
H       6.99      14.64      22.21
H       6.74      16.41      20.48
H       4.59      14.68      21.68
H       6.42      21.57      15.96
H       4.02      21.60      15.42
H       4.27      19.82      17.16
H       4.20      15.25       2.50
H       4.23      16.98       4.30
H       6.72      14.44       3.33
H       3.89      21.76       9.21
H       6.42      20.95      10.04
H       6.38      19.22       8.25
H       3.62       9.32      22.48
H       3.33       7.61      20.68
H       1.21       9.32      21.83
H       2.86       2.81      15.81
H       0.44       2.79      15.16
H       0.74       4.49      16.98
H       0.58       6.41       5.26
H       3.09       5.66       7.28
H       4.29      17.20      19.17
H       6.71      19.04      18.47
H       6.70      16.85       5.96
H       3.91      19.35       6.59
H       0.85       6.91      19.21
H       3.22       5.21      18.43
C       4.84       1.74      14.25
C       4.92       1.51      10.64
C       1.84      22.45      10.83
C       1.76      22.63      14.43
C       5.90      10.38      23.39
C       5.42      10.57       1.90
C       2.10      13.74       1.72
C       2.58      13.61      23.20
C       5.36       9.58       3.01
C       4.14       9.36       3.67
C       4.05       8.37       4.64
C       5.17       7.58       4.96
C       6.41       7.84       4.31
C       6.50       8.83       3.34
C       5.12       6.52       5.89
C       5.22       5.56       6.65
C       5.17       4.50       7.58
C       3.93       4.24       8.23
C       3.84       3.25       9.20
C       4.98       2.50       9.53
C       6.20       2.72       8.87
C       6.30       3.71       7.90
C       2.47      14.58      22.07
C       1.19      15.06      21.71
C       1.05      16.04      20.75
C       2.20      16.58      20.13
C       3.48      16.05      20.45
C       3.61      15.07      21.42
C       2.13      17.65      19.21
C       2.20      18.59      18.43
C       2.14      19.66      17.51
C       0.86      20.19      17.19
C       0.73      21.18      16.22
C       1.87      21.66      15.56
C       3.15      21.18      15.92
C       3.28      20.20      16.88
C       2.12      14.76       2.81
C       3.30      15.47       3.08
C       3.32      16.43       4.08
C       2.15      16.70       4.82
C       0.97      15.96       4.55
C       0.96      15.00       3.54
C       2.08      17.69       5.83
C       1.86      18.51       6.71
C       1.79      19.49       7.72
C       2.97      20.24       7.99
C       2.99      21.20       9.00
C       1.82      21.44       9.74
C       0.64      20.73       9.46
C       0.63      19.76       8.47
C       5.76       9.39      22.28
C       4.48       8.92      21.94
C       4.32       7.98      20.94
C       5.44       7.48      20.25
C       6.73       7.99      20.57
C       6.89       8.94      21.58
C       5.35       6.49      19.26
C       5.40       5.62      18.39
C       5.30       4.63      17.39
C       4.01       4.13      17.07
C       3.85       3.19      16.06
C       4.97       2.73      15.36
C       6.26       3.19      15.70
C       6.42       4.13      16.70
O       5.92       1.43      13.65
O       3.80       1.34      11.23
O       2.96      23.01      11.09
O       0.60      23.07      14.12
O       0.74      22.68      11.44
O       2.85      22.91      13.84
O       3.67       1.30      13.96
O       6.01       0.94      10.96
O       1.49       0.85      12.50
O       5.10      23.32      12.62
O       7.06      10.82      23.67
O       4.33      11.14       1.59
O       3.20      13.52       1.11
O       1.49      13.33      23.80
O       0.98      13.18       1.46
O       3.74      13.17      23.51
O       4.82      10.70      23.99
O       6.54      10.74       1.31
O       2.18      11.23       0.05
O       5.91      12.92      25.02
O       0.84       7.10       4.61
O       2.83       4.98       7.93
O       4.59      16.53      19.82
O       6.42      19.72      17.82
O       6.50      16.18       5.27
O       4.11      20.02       7.27
O       1.16       7.55      19.89
O       2.91       4.58      17.74
