128

Al       0.73       6.59      10.95
Al       4.07       6.60      11.01
Al       4.73       0.00       0.03
Al       1.49      13.18      21.92
H       4.22      -5.94      19.74
H       4.09      -3.88      18.35
H       1.70      -3.84      18.05
H       1.81      -5.89      19.47
H       1.29      -1.61      18.05
H       1.15       0.42      16.66
H       4.19      -1.04      14.88
H       4.33      -3.06      16.27
H       3.77       1.20      14.88
H       3.67       3.24      13.46
H       1.26       3.30      13.19
H       1.39       1.23      14.58
H       0.99       4.02       7.66
H       3.61       5.32       7.18
H       2.01       2.48       5.98
H       3.46       4.12       5.00
H       1.86       1.28       3.80
H       4.47       2.57       3.32
H       4.36       9.14      14.29
H       0.28       7.90      14.80
H       5.41      10.68      15.96
H       0.16       9.10      16.98
H       5.29      11.88      18.14
H       1.21      10.63      18.65
H       0.93      19.13       2.20
H       0.80      17.07       3.59
H       5.09      17.02       3.91
H       5.21      19.06       2.49
H       4.67      14.79       3.92
H       4.52      12.76       5.31
H       0.87      14.23       7.06
H       1.01      16.25       5.68
H       0.45      11.99       7.07
H       0.33       9.95       8.49
H       4.61       9.89       8.78
H       4.74      11.95       7.39
H       2.42       4.92      10.43
H       5.76       8.29      11.49
H       3.04       1.67       0.55
H       6.48      11.49      21.44
C       2.38       7.76      13.11
C       2.41       8.58       9.59
C       5.72       5.43       8.85
C       5.75       4.60      12.37
C       5.12      -5.47      19.36
C       5.06      -4.32      18.58
C       6.23      -3.71      18.10
C       0.79      -4.29      18.44
C       0.85      -5.43      19.22
C       6.36      -6.03      19.70
C       0.46      -1.50      17.34
C       0.39      -0.35      16.56
C       6.01      -0.15      15.67
C       5.01      -1.14      15.59
C       5.09      -2.29      16.38
C       6.16      -2.49      17.27
C       4.69       1.64      14.50
C       4.63       2.79      13.71
C       5.80       3.39      13.24
C       0.36       2.82      13.57
C       0.42       1.68      14.35
C       5.93       1.07      14.83
C       5.66       4.72       7.54
C       6.49       1.87       3.44
C       1.10       2.52       5.38
C       1.01       1.85       4.18
C       5.40       2.58       3.90
C       5.47       3.31       5.11
C       6.68       3.28       5.87
C       0.07       4.02       7.08
C       4.45       4.75       6.79
C       4.37       4.08       5.59
C       2.33       8.47      14.42
C       3.23      11.31      18.52
C       4.50      10.65      16.56
C       4.43      11.32      17.76
C       2.13      10.61      18.06
C       2.18       9.88      16.85
C       3.39       9.90      16.08
C       3.44       9.16      14.88
C       1.13       8.46      15.18
C       1.07       9.13      16.38
C       1.84      18.65       2.58
C       1.77      17.51       3.37
C       2.93      16.89       3.86
C       4.18      17.47       3.52
C       4.25      18.61       2.74
C       3.08      19.22       2.25
C       3.84      14.68       4.63
C       3.76      13.54       5.41
C       2.68      13.34       6.29
C       1.69      14.33       6.36
C       1.78      15.48       5.57
C       2.85      15.68       4.69
C       1.36      11.54       7.46
C       1.29      10.40       8.25
C       2.46       9.80       8.73
C       3.70      10.36       8.40
C       3.77      11.51       7.61
C       2.60      12.12       7.13
C       3.13      20.43       1.39
C       3.18      12.02      19.83
C       6.41      -7.25      20.56
C       6.43       1.16       2.12
O       3.53       8.12       9.98
O       1.26       7.49      12.57
O       0.19       5.07      11.99
O       1.26       8.11       9.89
O       0.19       5.68       9.34
O       3.53       7.50      12.62
O       2.40       5.81      10.80
O       4.60       5.71       9.40
O       4.60       5.07      12.07
O       5.75       7.38      11.16
O       2.03      12.27      20.32
O       4.28      20.90       1.09
O       5.27       0.91       1.64
O       4.30      12.29      20.37
O       5.29      -7.72      20.95
O       2.01      20.89       1.00
O       3.06       0.78       0.18
O       0.87      -7.72      20.86
O       0.86       0.88       1.58
O       6.50      12.40      21.77
