53

Zn       5.01       5.05       5.83
Zn       2.29       4.94       5.29
H       5.95       0.92       6.15
H       2.05       9.11       4.09
H       2.27       0.80       6.97
H       1.72       9.40       6.58
H       3.75       4.29      10.19
H       2.37       4.90       0.89
H       5.34       5.66       1.29
H       7.29       7.07       5.75
H       7.55       4.19       6.19
H       0.21       6.83       6.21
H       5.75       0.58       4.44
H      -0.36       4.38       4.71
H       5.72       9.24       5.02
H       5.43       9.54       6.73
H       3.89       0.64       7.66
H       3.08       9.24       7.71
H       3.52       0.70       3.38
H       3.69       9.36       3.44
H       0.66       6.23       8.75
H       1.63       1.42       4.64
C       4.04       5.20       2.98
C       3.63       9.14       5.60
C       2.76       9.69       6.76
C       3.01       9.62       4.27
C       1.70       4.85      10.14
C       2.91       4.63       9.58
C       3.39       5.15       0.58
C       4.32       5.35       1.54
C       7.79       6.09       5.85
C      -0.39       6.02       5.76
C       3.80       2.37       5.46
C       3.18       4.78       8.14
C       3.65       7.62       5.67
C       5.34       0.36       5.44
C       5.04       9.74       5.72
C       3.25       0.33       6.82
C       3.12       0.24       4.30
C       3.89       0.85       5.51
C       0.53       5.27       9.29
N       7.05       5.07       6.04
N       0.24       5.08       5.17
O       5.04       5.36       3.76
O       2.84       4.94       3.34
O       4.88       3.04       5.51
O       2.63       2.88       5.39
O       4.39       4.73       7.77
O       2.16       4.93       7.37
O       4.75       7.06       6.01
O       2.57       7.00       5.40
O      -0.54       4.66       9.28
O       1.71       0.47       4.39
