154

Zn       3.87       7.91       8.73
Zn      -1.98      27.78       9.34
Zn      19.98      29.17      11.50
Zn      18.73      28.11       8.73
Zn      19.98       9.64       0.84
Zn       3.87      23.47      17.22
Zn      18.73      12.54       0.24
Zn      -1.98      12.21       0.84
H      23.27       6.54       5.71
H       0.58      11.01       3.86
H      21.89       7.55       3.86
H       1.96      10.00       5.71
H      21.89      27.76      14.89
H       1.96      24.88      13.83
H      23.27      26.75      16.74
H       0.58      25.89      11.98
C       6.58       7.10       7.85
C      22.28      27.48      12.24
C      27.40       9.33      11.30
C      17.28      27.99      11.30
C       1.57       7.62       6.91
C      20.30      25.76       7.85
C      27.40      20.54      17.42
C       1.57      25.16      16.48
C      17.28      10.44       1.73
C      20.30      14.55       1.73
C      22.28       9.93       2.67
C       6.58      24.65      17.42
C       0.76       8.21       5.81
C      23.09       9.33       3.76
C      23.51       7.51       5.30
C       0.34      10.03       4.28
C      22.75       8.07       4.28
C       1.10       9.47       5.30
C      23.09      26.88      13.34
C       0.76      25.76      15.38
C      22.75      27.13      14.67
C       1.10      25.51      14.05
C      23.51      26.57      15.70
C       0.34      26.07      13.02
C      27.40      19.22      16.70
C      27.15      18.01      17.37
C      27.15      16.79      16.71
C      27.40      16.70      15.32
C       3.81      17.91      14.65
C       3.81      19.13      15.31
C      27.40      15.47      14.65
C      27.40      14.40      14.07
C      27.40      13.17      13.40
C      27.15      11.96      14.07
C      27.15      10.74      13.41
C      27.40      10.65      12.02
C       3.81      11.86      11.35
C       3.81      13.08      12.02
C      -3.55      15.87       2.45
C      -2.37      16.41       3.02
C      -2.38      17.63       3.68
C      -3.55      18.39       3.82
C      19.13      17.86       3.26
C      19.13      16.64       2.59
C      20.30      19.62       4.50
C      20.30      20.69       5.08
C      20.30      21.93       5.75
C      -2.38      22.46       6.32
C      -2.37      23.68       6.98
C      20.30      24.45       7.13
C      19.13      23.91       6.56
C      19.13      22.69       5.89
C      16.02      10.05       2.45
C      15.86       8.77       3.02
C      14.69       8.41       3.68
C      13.61       9.30       3.82
C      13.77      10.58       3.26
C      14.93      10.94       2.59
C      12.44       8.93       4.50
C      11.42       8.61       5.08
C      10.24       8.25       5.75
C      10.08       6.97       6.32
C       8.92       6.60       6.98
C       7.83       7.50       7.13
C       8.00       8.78       6.56
C       9.16       9.14       5.89
C       7.83      25.04      16.70
C       8.00      24.83      15.31
C       9.16      25.19      14.65
C      10.24      25.79      15.32
C      10.08      26.01      16.71
C       8.92      25.65      17.37
C      11.42      26.16      14.65
C      12.44      26.48      14.07
C      13.61      26.85      13.40
C      13.77      26.63      12.02
C      14.93      26.99      11.35
C      16.02      27.60      12.02
C      15.86      27.81      13.41
C      14.69      27.45      14.07
O      -3.55      28.93       9.57
O       5.66       7.98       7.91
O      -1.21      27.21      11.04
O      27.17       8.29      12.00
O       6.53       5.93       8.33
O       3.79       9.36      10.05
O      21.29      28.21      12.59
O      18.20      28.52      12.00
O      25.07       6.47       7.33
O      17.32      27.76      10.05
O       2.56       8.30       7.33
O      -2.44      26.15       8.33
O      19.19      26.38       7.91
O       3.55      23.71      19.15
O      27.17      20.51      18.67
O       2.56      24.43      16.13
O      17.32      11.62       1.25
O       3.79      21.57      16.72
O      18.20       9.56       1.66
O      25.07      25.43      17.68
O      19.19      14.16       1.25
O      -1.21      11.08       2.24
O      -2.44      13.94       1.66
O      21.29       9.25       2.24
O       5.66      24.12      16.72
O       6.53      24.88      18.67
F      26.89      17.96      18.69
F       4.06      20.21      14.56
F       4.06      17.88      13.33
F      26.90      15.66      17.40
F      26.90      11.99      15.40
F       4.05      14.21      11.32
F       4.06      11.91      10.03
F      26.89       9.65      14.16
F      -1.19      15.77       2.95
F      17.94      16.24       2.10
F      17.98      18.55       3.37
F      -1.23      18.10       4.20
F      -1.23      21.76       6.21
F      17.98      22.22       5.37
F      17.94      24.54       6.63
F      -1.19      24.08       7.48
F      16.81       7.83       2.95
F      14.97      12.19       2.10
F      12.77      11.47       3.37
F      14.59       7.17       4.20
F      11.09       6.07       6.21
F       9.26      10.38       5.37
F       7.04       9.72       6.63
F       8.89       5.35       7.48
F       7.04      24.26      14.56
F       8.89      25.91      18.69
F      11.09      26.58      17.40
F       9.26      24.96      13.33
F      12.77      26.05      11.32
F      14.59      27.68      15.39
F      16.81      28.38      14.16
F      14.97      26.73      10.03
