149

Cd      -0.00       0.00       0.00
Cu      -4.47       6.88      15.15
Cu       6.33      -0.35       7.57
H      -3.26       9.63      12.00
H       5.13       2.92       4.97
H       5.13       4.83       3.15
H      -3.26      11.54      10.18
H      -1.68      10.19      12.65
H       3.54       2.30       4.38
H       3.54       4.27       2.50
H      -1.68      12.17      10.76
H      -3.18      10.95      13.19
H       5.05       1.79       3.60
H       5.05       3.51       1.96
H      -3.18      12.67      11.55
H       2.03       9.25       2.61
H      -0.16      12.28       5.78
H      -0.16       5.21      12.53
H       2.03       2.18       9.36
H       3.21       8.69       1.43
H      -1.35      13.44       6.40
H      -1.35       5.78      13.72
H       3.21       1.02       8.74
H       2.21       7.50       2.32
H      -0.34      12.49       7.54
H      -0.34       6.96      12.82
H       2.21       1.97       7.60
H       0.48      12.11       0.68
H       1.39      14.34       3.02
H       1.39       2.36      14.47
H       0.48       0.12      12.12
H       2.01      14.08       0.78
H      -0.15      14.33       1.04
H      -0.15       0.38      14.36
H       2.01       0.13      14.10
H       2.20      11.19      14.47
H      -0.34       0.52       3.31
H      -0.34       3.28       0.67
H       2.20      13.94      11.84
H       0.85       9.08      14.39
H       1.02       0.50       5.42
H       1.02       5.39       0.75
H       0.85      13.96       9.73
H       4.74       8.90       3.74
H      -2.88      11.13       6.08
H      -2.88       5.56      11.40
H       4.74       3.33       9.06
H      -1.87       7.69       3.22
H       3.73      11.60       7.32
H       3.73       6.78      11.93
H      -1.87       2.86       7.83
H      -0.07       9.00       4.11
H       1.93      10.78       5.96
H       1.93       5.46      11.04
H      -0.07       3.69       9.18
H      -1.33       9.76       5.10
H       3.20       9.82       5.16
H       3.20       4.70      10.05
H      -1.33       4.64       9.98
H      -1.08      11.76       3.82
H       2.94      11.19       3.22
H       2.94       2.70      11.33
H      -1.08       3.27      11.93
H       0.18      10.96       2.87
H       1.69      12.11       4.07
H       1.69       3.50      12.28
H       0.18       2.36      11.08
H       5.04      11.22       2.27
H      -3.18      12.72       3.83
H      -3.18       3.24      12.88
H       5.04       1.75      11.31
H      -1.44      11.03       1.11
H       3.30      13.86       4.08
H       3.30       3.43      14.04
H      -1.44       0.60      11.07
C      -2.73       9.99      12.89
C       4.59       2.05       4.57
C       4.59       4.47       2.26
C      -2.73      12.41      10.58
C      -2.88       8.98      13.99
C       4.74       0.90       5.53
C       4.74       5.48       1.16
C      -2.88      13.56       9.62
C      -1.90       8.91      15.02
C       3.77      -0.13       5.55
C       3.77       5.55       0.12
C      -1.90      14.60       9.59
C       1.12       8.54       0.81
C       0.75      14.05       6.57
C       0.75       5.92      14.34
C       1.12       0.41       8.57
C       2.22       8.49       1.85
C      -0.35      13.01       6.58
C      -0.35       5.97      13.30
C       2.22       1.45       8.56
C      -0.96      10.05      15.13
C       2.82      -0.18       4.40
C       2.82       4.41       0.02
C      -0.96      14.65      10.74
C       1.53      11.99       0.41
C       0.34      14.60       3.15
C       0.34       2.47      14.73
C       1.53      -0.14      12.00
C       2.36      13.10       0.46
C      -0.50      14.61       2.04
C      -0.50       1.36      14.69
C       2.36      -0.14      13.11
C       1.16      11.17      14.80
C       0.70       0.19       3.31
C       0.70       3.29       0.34
C       1.16      14.27      11.84
C       0.40      10.00      14.75
C       1.47       0.19       4.47
C       1.47       4.46       0.40
C       0.40      14.27      10.67
C      -2.08       8.76       3.30
C       3.94      11.57       6.24
C       3.94       5.70      11.85
C      -2.08       2.89       8.90
C      -1.01       9.56       4.06
C       2.88      10.84       5.41
C       2.88       4.90      11.08
C      -1.01       3.62       9.74
C      -0.85      10.86       3.24
C       2.71      11.73       4.15
C       2.71       3.60      11.91
C      -0.85       2.73      11.00
C      -1.83      10.69       2.07
C       3.70      12.89       4.37
C       3.70       3.77      13.07
C      -1.83       1.58      10.77
N       3.66      13.05       0.09
N      -1.79      14.97       2.11
N      -1.79       1.42      15.05
N       3.66      -0.51      13.04
Cl      -4.01      13.25      13.88
Cl       5.88       1.21       1.27
O      -3.91       8.23      13.89
O       5.77       0.97       6.29
O       5.77       6.23       1.26
O      -3.91      13.49       8.86
O       0.27       7.58       0.87
O       1.59      13.95       7.53
O       1.59       6.88      14.28
O       0.27       0.52       7.62
O      -2.08       9.28       1.96
O       3.94      12.94       5.78
O       3.94       5.18      13.19
O      -2.08       1.53       9.36
