200

Zn      21.17      17.46       6.87
Zn      13.63       4.36       6.90
Zn      24.38      17.58       6.93
Zn      22.75      18.45       9.53
Zn       6.20       8.72       0.58
Zn      21.28       8.77       0.70
Zn       4.57       5.98       0.60
Zn      13.66      13.17      13.14
H       7.02       3.35       5.83
H       8.46       4.46       7.51
H      18.32      19.13       9.52
H      16.17      15.65       8.16
H      15.79      15.93      10.74
H      20.61      15.72      11.88
H      11.86       9.11       1.33
H      19.47      10.92      14.44
H      20.94      10.77       4.85
H      19.84      13.64       5.02
H      20.81      12.83       6.29
H      26.01      14.16      14.02
H      26.15      15.83      14.67
H      24.31      14.95      12.36
H      13.61       8.00       8.83
H      13.51      10.07      10.21
H      13.31       7.07      14.66
H      15.33       5.31      13.13
H      13.58       4.95      13.29
H      18.87       3.38       5.50
H      17.43       8.36       2.61
H      15.66       7.48       4.10
H      15.19       6.27       2.89
H       9.30       2.67       3.84
H       7.59       3.73       2.38
H       9.87       8.53       3.17
H       8.71       8.51       4.52
H      11.61       7.43       4.62
H      10.46       7.43       5.99
H      16.73       2.13       3.21
H      17.01       1.52       1.56
H      15.73       2.72       1.86
H      23.81      16.34       1.58
H      23.50      16.99       3.19
H      25.45      15.67       4.09
H      25.76      15.03       2.48
H      25.02      11.33      13.70
H      26.78      11.06      13.65
H      25.68       9.68      13.84
H      17.63       4.98       0.90
H      15.89       5.21       0.97
H      16.16       7.66       0.59
H      17.91       7.46       0.42
H      14.56      15.44       3.42
H      13.10      16.27       4.03
H       4.88       1.00       2.62
H       5.42       2.37       4.61
H       6.87       1.53       4.05
H      15.51      15.63       5.77
H      14.13      16.54       6.35
H      11.89      13.54       0.24
H      10.32      13.46       1.08
H      11.83      13.44       2.01
H      10.88      11.13       1.88
H      12.43      11.22       1.04
H      20.34      16.79      13.99
H      18.80      16.69      14.82
C      13.89       5.44       9.65
C      22.92      15.54       5.42
C      11.13       3.91       5.44
C      25.31      17.07       9.66
C      16.22       4.06       5.53
C      20.21      17.03       9.64
C       8.16       3.42       7.65
C      17.69      18.64       8.78
C      17.30      17.30       8.97
C      16.46      16.69       8.02
C      16.02      17.37       6.88
C       7.34       2.79       6.71
C      16.86      15.87      10.97
C      17.26      15.17      12.11
C      18.63      15.09      12.46
C      19.54      15.77      11.65
C      19.13      16.46      10.50
C      17.77      16.53      10.14
C      19.82      14.83      14.68
C      11.30       8.70       0.49
C      11.20       7.32       0.37
C      19.58      12.00      14.49
C      19.05      12.85      13.53
C      19.16      14.25      13.57
C      21.97      13.45       4.48
C      22.96      14.43       4.42
C      23.97      14.29       3.42
C      23.93      13.14       2.61
C      22.96      12.12       2.69
C      21.98      12.34       3.65
C      20.78      11.71       4.32
C      20.72      13.02       5.21
C      26.13      16.11      11.82
C      26.41      16.58      10.55
C      27.78      16.55      10.20
C      28.75      16.06      11.08
C      28.43      15.52      12.34
C      27.09      15.60      12.69
C      26.08      15.23      13.76
C      24.99      15.73      12.73
C      14.06       6.63      11.88
C      13.90       6.66      10.49
C      13.71       7.94       9.92
C      13.65       9.10      10.69
C      13.76       9.05      12.09
C      13.97       7.79      12.64
C      14.15       7.05      13.95
C      14.32       5.74      13.08
C      17.10       5.82       3.95
C      17.32       4.72       4.78
C      18.63       4.22       4.84
C      19.65       4.81       4.10
C      19.43       5.87       3.19
C      18.12       6.35       3.16
C      17.19       7.30       2.43
C      16.05       6.74       3.38
C      10.01       5.91       4.44
C      10.13       4.53       4.55
C       9.23       3.76       3.78
C       8.27       4.35       2.96
C       8.16       5.75       2.87
C       9.05       6.51       3.62
C       9.47       7.92       3.99
C      10.57       7.24       4.91
C      29.42      14.78      13.18
C       7.11       6.38       2.02
C      22.95      10.87       1.88
C      13.66      10.26      12.94
C      20.43       6.40       2.22
C      16.21      14.55      12.97
C      24.97      15.39       3.15
C      24.30      16.63       2.53
C      16.23       1.83       2.27
C      17.02       7.06       0.93
C      16.81       5.60       0.51
C      25.85      10.73      14.13
C      15.13      16.65       5.89
C      14.96      17.29       4.51
C      14.10      16.43       3.59
C      19.84      16.33      14.86
C      11.39      11.56       1.00
C      11.35      13.08       1.09
N      11.89       6.46       1.35
N      18.34      12.19      12.41
N      24.97      13.02       1.56
N      19.56      11.49       3.44
N      28.22      17.07       8.87
N      30.19      16.20      10.70
N      24.11      16.84      13.25
N      15.37       7.45      14.75
N      21.02       4.32       4.36
O      22.75      18.42       7.57
O      13.98       4.32      10.26
O      21.75      15.90       5.78
O      11.95       4.72       6.00
O      25.58      17.21       8.44
O      15.16       4.74       5.72
O      21.10      17.71      10.26
O      16.44       2.86       5.90
O      20.17      16.77       8.40
O      11.10       2.64       5.59
O      24.20      17.28      10.24
O      13.78       5.62       8.39
O      24.03      16.00       5.85
O      13.66      13.13      15.10
O      30.33      14.17      12.55
O       7.18       7.65       1.87
O      21.81      10.29       1.83
O      13.65      10.05      14.20
O      20.26       7.63       1.91
O      15.13      14.21      12.39
O      21.29       5.59       1.74
O      16.49      14.43      14.21
O      24.03      10.48       1.35
O      13.58      11.39      12.35
O      29.21      14.80      14.44
O       6.23       5.61       1.53
O      11.74       5.23       1.25
O      12.61       7.02       2.20
O      18.73      12.43      11.26
O      17.41      11.42      12.72
O      26.10      12.65       1.91
O      24.64      13.35       0.41
O      19.31      12.36       2.60
O      18.90      10.47       3.66
O      28.23      16.28       7.94
O      28.54      18.26       8.85
O      30.88      16.85      11.49
O      30.56      15.67       9.65
O      24.63      17.95      13.42
O      22.94      16.54      13.51
O      16.43       7.60      14.13
O       6.11       2.29       0.83
O      21.91       5.17       4.49
O      21.17       3.10       4.48
