64

Zn       5.98       7.65       6.60
Zn       6.04       4.84       6.53
H       1.91       4.96       5.09
H       2.85       7.24       9.19
H       1.48       8.26      10.98
H       9.94       8.39      10.73
H       8.84       7.49       8.72
H      10.36       5.02       4.87
H       6.35       4.40       2.33
H       6.90       3.30       0.15
H       4.96       9.26      13.02
H       7.00       4.13      10.78
H       5.55       8.16      10.83
H       7.73       9.81       5.61
H       4.15       9.71       7.69
H       8.87      12.07       5.07
H       4.08      12.21       7.93
H       7.82       2.78       5.37
H       4.24       2.68       7.43
C       6.28       6.20       9.17
C       3.43       6.15       6.90
C       5.65       6.34       3.99
C       8.59       6.25       6.41
C       1.77       7.30       9.08
C       1.00       7.87      10.07
C      10.54       7.94       9.94
C       9.92       7.43       8.82
C      10.68       6.82       7.78
C       1.16       6.76       7.91
C       1.93       6.11       6.90
C       1.30       5.47       5.84
C      10.85       5.51       5.72
C      10.07       6.20       6.63
C       5.57       6.37       2.49
C       6.27       6.16      10.67
C       6.60       4.93      12.74
C       6.66       4.98      11.36
C       5.84       7.26      11.38
C       5.75       7.24      12.79
C       6.13       5.31       0.36
C       6.03       5.29       1.77
C       5.18       7.53       1.77
C       5.27       7.62       0.41
C       7.05       0.77       5.60
C       7.03       2.14       5.75
C       5.02       2.10       6.93
C       4.95       0.69       6.85
C       7.00      11.80       6.16
C       6.94      10.39       6.10
C       4.93      10.35       7.29
C       4.90      11.72       7.41
N       5.95       9.70       6.65
N       6.03       2.79       6.41
N       4.54       8.67       2.47
O       6.06       7.34       8.64
O       6.49       5.11       8.55
O       3.96       7.29       6.76
O       4.04       5.04       7.00
O       5.91       7.45       4.56
O       5.53       5.21       4.55
O       8.02       7.38       6.56
O       8.02       5.16       6.10
O       4.97       9.80       2.23
O       3.57       8.41       3.19
