58

Zn       3.12       5.37       5.51
Zn       5.83       5.44       5.65
H       2.46       1.18       4.99
H       6.09       9.63       6.72
H       6.16       9.95       4.43
H       6.70       5.56       1.31
H       3.67       5.14       1.02
H       6.20       5.21      10.01
H       3.23       6.01      10.03
H       0.87       7.32       4.81
H       0.55       4.50       5.53
H       8.05       6.98       4.28
H       2.73       0.95       6.71
H       8.40       5.02       6.43
H       2.34       9.57       6.31
H       2.41       9.81       4.57
H       4.30       0.96       3.46
H       6.44       1.02       6.61
H       5.04       1.08       7.68
H       8.18       1.64       3.86
H       5.19       8.07       1.83
H       3.63      10.03       8.24
H       5.09       9.48       8.74
C       4.32       5.61       8.17
C       4.33       9.56       5.50
C       5.10      10.16       4.27
C       5.08      10.06       6.77
C       5.76       5.48       0.76
C       4.64       5.32       1.49
C       5.24       5.44      10.47
C       4.21       5.72       9.65
C       0.35       6.38       5.05
C       8.57       6.33       4.99
C       4.53       2.78       5.66
C       4.63       5.30       2.97
C       4.40       8.03       5.46
C       3.12       0.68       5.72
C       2.89      10.08       5.51
C       5.09       0.76       4.21
C       5.41       0.68       6.73
C       4.54       1.25       5.59
C       6.31       1.49       3.68
C       4.67       9.50       2.98
N       1.07       5.37       5.36
N       7.87       5.57       5.74
N       4.44       9.48       7.95
O       3.22       5.69       7.53
O       5.47       5.41       7.66
O       3.40       3.36       5.79
O       5.66       3.37       5.58
O       3.49       5.10       3.51
O       5.73       5.49       3.60
O       3.31       7.41       5.23
O       5.54       7.50       5.65
O       6.31       2.25       2.73
O       7.47       1.13       4.32
O       3.65       9.74       2.36
O       5.57       8.55       2.59
