171

Cu       6.00      22.35      19.74
Cu       3.74      20.13      19.80
Cu       5.78      20.30      22.23
Cu       5.90       3.68       5.78
Cu       3.67       5.93       5.78
Cu       5.65       5.72       3.31
Cu      19.69       4.17      19.56
Cu      22.03       6.35      19.60
Cu      19.54       6.54      21.63
Cu      19.77      22.11       5.88
Cu      22.03      19.83       5.93
Cu      19.59      19.69       3.87
Si      25.13      12.72       0.04
Si       0.13      25.79      12.80
Si      12.88      26.11      25.48
H       5.07      24.06      17.19
H       2.00      20.99      17.29
H       8.09      21.44      24.08
H       8.57      24.00      20.62
H       1.96      17.66      20.70
H       4.68      17.91      24.07
H       4.98       1.95       8.32
H       2.01       5.12       8.37
H       7.95       4.59       1.42
H       8.47       2.04       4.89
H       1.88       8.41       4.89
H       4.54       8.10       1.47
H      20.62       2.37      17.13
H      23.90       5.20      17.27
H      16.96       5.67      23.34
H      17.35       2.30      20.64
H      23.83       8.74      20.72
H      20.36       9.09      23.30
H      20.75      23.94       8.28
H      23.84      20.89       8.34
H      17.03      20.54       2.15
H      17.43      23.98       4.75
H      23.80      17.37       4.87
H      20.38      17.12       2.22
C       4.44      23.20      17.41
C       3.26      22.79      16.77
C       2.87      21.63      17.46
C       8.01      21.95      23.13
C       8.80      23.00      22.62
C       8.26      23.26      21.35
C       2.75      17.91      21.41
C       3.03      17.33      22.65
C       4.14      18.04      23.14
C       4.37       2.83       8.13
C       3.23       3.28       8.82
C       2.85       4.46       8.16
C       7.88       4.08       2.38
C       8.68       3.04       2.88
C       8.15       2.77       4.16
C       2.65       8.14       4.17
C       2.92       8.71       2.91
C       4.02       7.98       2.41
C      21.30       3.19      17.35
C      22.54       3.49      16.75
C      22.99       4.64      17.42
C      17.24       4.97      22.56
C      16.70       3.70      22.27
C      17.44       3.24      21.17
C      22.88       8.64      21.22
C      22.35       9.38      22.30
C      21.10       8.81      22.55
C      21.39      23.07       8.10
C      22.57      22.70       8.76
C      22.97      21.51       8.14
C      17.31      21.26       2.91
C      16.77      22.53       3.16
C      17.52      23.03       4.24
C      22.86      17.51       4.35
C      22.34      16.77       3.27
C      21.10      17.38       2.98
C       2.56      23.44      15.69
C       1.21      24.73      13.92
C       2.55       2.63       9.92
C       1.19       1.36      11.69
C      23.22       2.75      15.72
C      24.47       1.37      13.94
C      23.25      23.41       9.82
C      24.51      24.73      11.64
C       9.90      23.67      23.26
C      11.73      25.01      24.47
C      15.73      23.21       2.43
C      13.95      24.46       1.05
C       9.77       2.37       2.23
C      11.61       1.05       1.00
C      15.66       3.00      22.98
C      13.94       1.68      24.38
C       2.30      16.26      23.30
C       0.90      14.49      24.53
C      22.98      10.46      23.02
C      24.18      12.25      24.43
C      22.95      15.67       2.56
C      24.11      13.85       1.16
C       2.19       9.78       2.27
C       0.80      11.57       1.05
N       3.75      21.37      18.44
N       4.73      22.35      18.41
N       7.23      22.43      21.12
N       7.08      21.61      22.22
N       4.49      18.98      22.25
N       3.62      18.90      21.17
N       3.70       4.69       7.15
N       4.64       3.69       7.13
N       7.11       3.59       4.39
N       6.95       4.41       3.29
N       4.37       7.04       3.31
N       3.52       7.14       4.40
N      22.09       5.00      18.35
N      21.04       4.09      18.30
N      18.36       4.16      20.83
N      18.24       5.23      21.69
N      20.88       7.80      21.70
N      21.99       7.69      20.87
N      22.09      21.19       7.17
N      21.11      22.17       7.15
N      18.43      22.11       4.61
N      18.31      21.02       3.78
N      20.90      18.40       3.83
N      21.99      18.48       4.68
N       3.10      24.59      15.20
N       1.41      22.87      15.25
N       0.71      23.54      14.34
N       2.40      25.25      14.29
N       3.05       1.44      10.35
N       1.47       3.26      10.45
N       0.77       2.60      11.36
N       2.34       0.79      11.26
N      22.59       1.65      15.21
N      24.46       3.17      15.35
N      25.10       2.46      14.45
N      23.24       0.95      14.30
N      24.40      22.88      10.30
N      22.70      24.58      10.24
N      23.35      25.26      11.17
N      25.05      23.56      11.23
N      10.59      24.59      22.53
N      10.18      23.33      24.55
N      11.11      24.03      25.16
N      11.53      25.28      23.16
N      15.49      24.51       2.75
N      15.07      22.51       1.47
N      14.16      23.16       0.76
N      14.58      25.15       2.03
N      10.01       2.69       0.93
N      10.50       1.48       2.95
N      11.44       0.80       2.32
N      10.95       2.00       0.30
N      14.99       3.67      23.96
N      15.42       1.71      22.63
N      14.55       1.04      23.35
N      14.11       2.99      24.67
N       2.76      15.82      24.50
N       1.21      15.77      22.66
N       0.48      14.88      23.30
N       2.03      14.91      25.13
N      24.22      10.86      22.61
N      22.29      11.01      24.05
N      22.92      11.92      24.79
N      24.82      11.78      23.34
N      24.16      15.22       2.99
N      22.26      15.13       1.52
N      22.86      14.21       0.79
N      24.75      14.29       2.27
N       1.10      10.27       2.91
N       2.65      10.21       1.06
N       1.93      11.13       0.44
N       0.38      11.18       2.28
