432

Cd       2.58      16.09      16.09
Cd      13.86       5.36       5.36
Cd       5.63       5.36       5.36
Cd      10.80      16.09      16.09
Si       1.51       5.36       5.36
Si      14.92      16.09      16.09
Si       6.71      16.09      16.09
Si       9.73       5.36       5.36
H       0.54      16.43      18.53
H       0.54      15.75      13.65
H       0.54      13.65      16.43
H       0.54      18.53      15.75
H      15.90       5.02       2.93
H      15.90       5.71       7.80
H      15.90       7.80       5.02
H      15.90       2.93       5.71
H       0.48      17.22      20.91
H       0.48      14.96      11.27
H       0.48      11.27      17.22
H       0.48      20.91      14.96
H      15.96       4.23       0.54
H      15.96       6.49      10.18
H      15.96      10.18       4.23
H      15.96       0.54       6.49
H       4.66      18.24      20.53
H       4.66      13.94      11.65
H       4.66      11.65      18.24
H       4.66      20.53      13.94
H      11.78       3.21       0.92
H      11.78       7.52       9.80
H      11.78       9.80       3.21
H      11.78       0.92       7.52
H       4.59      17.32      18.20
H       4.59      14.86      13.98
H       4.59      13.98      17.32
H       4.59      18.20      14.86
H      11.85       4.13       3.25
H      11.85       6.59       7.48
H      11.85       7.48       4.13
H      11.85       3.25       6.59
H       3.28      19.14       0.99
H       3.28      13.04       9.74
H       3.28       9.74      19.14
H       3.28       0.99      13.04
H      13.16       2.31      20.47
H      13.16       8.42      11.71
H      13.16      11.71       2.31
H      13.16      20.47       8.42
H       1.59      18.61       1.21
H       1.59      13.57       9.52
H       1.59       9.52      18.61
H       1.59       1.21      13.57
H      14.85       2.85      20.25
H      14.85       7.88      11.93
H      14.85      11.93       2.85
H      14.85      20.25       7.88
H       6.94      16.31       2.51
H       6.94      15.87       8.21
H       6.94       8.21      16.31
H       6.94       2.51      15.87
H       9.50       5.14      18.94
H       9.50       5.59      13.24
H       9.50      13.24       5.14
H       9.50      18.94       5.59
H       7.69      14.60       4.15
H       7.69      17.58       6.57
H       7.69       6.57      14.60
H       7.69       4.15      17.58
H       8.75       6.85      17.30
H       8.75       3.88      14.88
H       8.75      14.88       6.85
H       8.75      17.30       3.88
H       1.27      13.25       5.70
H       1.27      18.93       5.03
H       1.27       5.03      13.25
H       1.27       5.70      18.93
H      15.17       8.20      15.75
H      15.17       2.53      16.42
H      15.17      16.42       8.20
H      15.17      15.75       2.53
H       0.52      14.88       3.98
H       0.52      17.29       6.75
H       0.52       6.75      14.88
H       0.52       3.98      17.29
H      15.92       6.57      17.47
H      15.92       4.16      14.71
H      15.92      14.71       6.57
H      15.92      17.47       4.16
H       4.91      11.71       8.49
H       4.91      20.47       2.24
H       4.91       2.24      11.71
H       4.91       8.49      20.47
H      11.52       9.75      12.96
H      11.52       0.98      19.22
H      11.52      19.22       9.75
H      11.52      12.96       0.98
H       6.61      11.91       7.96
H       6.61      20.27       2.77
H       6.61       2.77      11.91
H       6.61       7.96      20.27
H       9.83       9.54      13.50
H       9.83       1.18      18.68
H       9.83      18.68       9.54
H       9.83      13.50       1.18
H       7.72      10.15       6.62
H       7.72       0.57       4.11
H       7.72       4.11      10.15
H       7.72       6.62       0.57
H       8.71      11.30      14.83
H       8.71      20.88      17.35
H       8.71      17.35      11.30
H       8.71      14.83      20.88
H       7.67       7.78       5.81
H       7.67       2.94       4.92
H       7.67       4.92       7.78
H       7.67       5.81       2.94
H       8.76      13.67      15.64
H       8.76      18.51      16.53
H       8.76      16.53      13.67
H       8.76      15.64      18.51
H       3.61       7.44       6.67
H       3.61       3.28       4.05
H       3.61       4.05       7.44
H       3.61       6.67       3.28
H      12.83      14.01      14.78
H      12.83      18.17      17.40
H      12.83      17.40      14.01
H      12.83      14.78      18.17
H       3.53       9.77       7.58
H       3.53       0.95       3.15
H       3.53       3.15       9.77
H       3.53       7.58       0.95
H      12.91      11.68      13.87
H      12.91      20.50      18.30
H      12.91      18.30      11.68
H      12.91      13.87      20.50
C       1.43      16.82      19.02
C       1.43      15.36      13.16
C       1.43      13.16      16.82
C       1.43      19.02      15.36
C      15.00       4.63       2.43
C      15.00       6.09       8.29
C      15.00       8.29       4.63
C      15.00       2.43       6.09
C       1.40      17.28      20.34
C       1.40      14.90      11.84
C       1.40      11.84      17.28
C       1.40      20.34      14.90
C      15.03       4.18       1.12
C      15.04       6.55       9.61
C      15.03       9.61       4.18
C      15.03       1.12       6.55
C       2.57      17.80      20.90
C       2.57      14.38      11.27
C       2.57      11.27      17.80
C       2.57      20.90      14.38
C      13.87       3.65       0.55
C      13.87       7.08      10.18
C      13.87      10.18       3.65
C      13.87       0.55       7.08
C       3.73      17.84      20.12
C       3.73      14.34      12.06
C       3.73      12.06      17.84
C       3.73      20.12      14.34
C      12.71       3.61       1.33
C      12.71       7.12       9.40
C      12.71       9.40       3.61
C      12.71       1.33       7.12
C       3.69      17.35      18.82
C       3.69      14.83      13.35
C       3.69      13.35      17.35
C       3.69      18.82      14.83
C      12.74       4.11       2.63
C      12.74       6.62       8.10
C      12.74       8.10       4.11
C      12.74       2.63       6.62
C       2.59      18.30       0.88
C       2.59      13.88       9.85
C       2.59       9.85      18.30
C       2.59       0.88      13.88
C      13.85       3.15      20.57
C      13.85       7.58      11.60
C      13.85      11.60       3.15
C      13.85      20.57       7.58
C       2.05      16.49       2.45
C       2.05      15.69       8.27
C       2.05       8.27      16.49
C       2.05       2.45      15.69
C      14.39       4.96      19.00
C      14.39       5.77      13.18
C      14.39      13.18       4.96
C      14.39      19.00       5.77
C       2.50      15.50       3.45
C       2.50      16.68       7.28
C       2.50       7.28      15.50
C       2.50       3.45      16.68
C      13.93       5.96      18.00
C      13.93       4.77      14.17
C      13.93      14.17       5.96
C      13.93      18.00       4.77
C       3.89      15.30       3.66
C       3.89      16.88       7.07
C       3.89       7.07      15.30
C       3.89       3.66      16.88
C      12.55       6.16      17.79
C      12.55       4.57      14.39
C      12.55      14.39       6.16
C      12.55      17.79       4.57
C       4.85      16.03       2.93
C       4.85      16.14       7.79
C       4.85       7.79      16.03
C       4.85       2.93      16.14
C      11.58       5.42      18.52
C      11.58       5.31      13.66
C      11.58      13.66       5.42
C      11.58      18.52       5.31
C       4.42      17.10       2.00
C       4.42      15.08       8.72
C       4.42       8.72      17.10
C       4.42       2.00      15.08
C      12.02       4.35      19.45
C      12.02       6.38      12.73
C      12.02      12.73       4.35
C      12.02      19.45       6.38
C       6.20      15.77       3.11
C       6.20      16.41       7.62
C       6.20       7.62      15.77
C       6.20       3.11      16.41
C      10.23       5.68      18.34
C      10.23       5.05      13.83
C      10.23      13.83       5.68
C      10.23      18.34       5.05
C       6.63      14.81       4.04
C       6.63      17.37       6.69
C       6.63       6.69      14.81
C       6.63       4.04      17.37
C       9.81       6.65      17.42
C       9.81       4.08      14.76
C       9.81      14.76       6.65
C       9.81      17.42       4.08
C       5.70      14.11       4.81
C       5.70      18.07       5.92
C       5.70       5.92      14.11
C       5.70       4.81      18.07
C      10.73       7.34      16.64
C      10.73       3.39      15.53
C      10.73      15.53       7.34
C      10.73      16.64       3.39
C       6.16      13.13       5.82
C       6.16      19.04       4.90
C       6.16       4.90      13.13
C       6.16       5.82      19.04
C      10.28       8.32      15.63
C      10.28       2.41      16.55
C      10.28      16.55       8.32
C      10.28      15.63       2.41
C       3.78      12.70       6.44
C       3.78      19.48       4.28
C       3.78       4.28      12.70
C       3.78       6.44      19.48
C      12.65       8.75      15.01
C      12.65       1.98      17.17
C      12.65      17.17       8.75
C      12.65      15.01       1.98
C       3.36      13.63       5.38
C       3.35      18.55       5.35
C       3.36       5.35      13.63
C       3.35       5.38      18.55
C      13.08       7.82      16.07
C      13.08       2.91      16.10
C      13.08      16.10       7.82
C      13.08      16.07       2.91
C       4.32      14.34       4.62
C       4.32      17.84       6.11
C       4.32       6.11      14.34
C       4.32       4.62      17.84
C      12.12       7.11      16.83
C      12.12       3.61      15.35
C      12.12      15.35       7.11
C      12.12      16.83       3.61
C       2.00      13.83       5.14
C       2.00      18.35       5.59
C       2.00       5.59      13.83
C       2.00       5.14      18.35
C      14.43       7.62      16.31
C      14.43       3.10      15.86
C      14.43      15.86       7.62
C      14.43      16.31       3.10
C       1.58      14.75       4.17
C       1.58      17.43       6.56
C       1.58       6.56      14.75
C       1.58       4.17      17.43
C      14.86       6.70      17.28
C      14.86       4.03      14.89
C      14.86      14.89       6.70
C      14.86      17.28       4.03
C       5.61      11.58       7.65
C       5.61      20.60       3.07
C       5.61       3.07      11.58
C       5.61       7.65      20.60
C      10.83       9.87      13.80
C      10.83       0.86      18.38
C      10.83      18.38       9.87
C      10.83      13.80       0.86
C       5.63      10.15       7.17
C       5.63       0.58       3.56
C       5.63       3.56      10.15
C       5.63       7.17       0.58
C      10.81      11.30      14.28
C      10.81      20.88      17.90
C      10.81      17.90      11.30
C      10.81      14.28      20.88
C       6.80       9.58       6.66
C       6.80       1.15       4.06
C       6.80       4.06       9.58
C       6.80       6.66       1.15
C       9.64      11.87      14.79
C       9.64      20.31      17.39
C       9.64      17.39      11.87
C       9.64      14.79      20.31
C       6.77       8.27       6.20
C       6.77       2.46       4.53
C       6.77       4.53       8.27
C       6.77       6.20       2.46
C       9.66      13.19      15.25
C       9.66      18.99      16.92
C       9.66      16.92      13.19
C       9.66      15.25      18.99
C       4.51       8.07       6.70
C       4.51       2.66       4.03
C       4.51       4.03       8.07
C       4.51       6.70       2.66
C      11.93      13.38      14.75
C      11.93      18.79      17.43
C      11.93      17.43      13.38
C      11.93      14.75      18.79
C       4.47       9.37       7.20
C       4.47       1.36       3.53
C       4.47       3.53       9.37
C       4.47       7.20       1.36
C      11.97      12.08      14.26
C      11.97      20.09      17.92
C      11.97      17.92      12.08
C      11.97      14.26      20.09
N       2.56      16.85      18.29
N       2.56      15.33      13.89
N       2.56      13.89      16.85
N       2.56      18.29      15.33
N      13.87       4.60       3.17
N      13.87       6.12       7.56
N      13.87       7.56       4.60
N      13.87       3.17       6.12
N       3.04      17.25       1.82
N       3.04      14.93       8.91
N       3.04       8.91      17.25
N       3.04       1.82      14.93
N      13.40       4.20      19.64
N      13.40       6.53      12.54
N      13.40      12.54       4.20
N      13.40      19.64       6.53
N       5.64       7.53       6.21
N       5.64       3.19       4.51
N       5.64       4.51       7.53
N       5.64       6.21       3.19
N      10.79      13.92      15.24
N      10.79      18.26      16.94
N      10.79      16.94      13.92
N      10.79      15.24      18.26
N       5.17      12.51       6.59
N       5.17      19.67       4.13
N       5.17       4.13      12.51
N       5.17       6.59      19.67
N      11.27       8.94      14.86
N      11.27       1.78      17.32
N      11.27      17.32       8.94
N      11.27      14.86       1.78
O       0.86      16.68       2.20
O       0.86      15.50       8.53
O       0.86       8.53      16.68
O       0.86       2.20      15.50
O      15.58       4.77      19.25
O      15.58       5.95      12.93
O      15.58      12.93       4.77
O      15.58      19.25       5.95
O       5.22      17.85       1.44
O       5.22      14.33       9.29
O       5.22       9.29      17.85
O       5.22       1.44      14.33
O      11.22       3.60      20.02
O      11.22       7.12      12.16
O      11.22      12.16       3.60
O      11.22      20.02       7.12
O       2.98      12.14       7.19
O       2.98      20.04       3.54
O       2.98       3.54      12.14
O       2.98       7.19      20.04
O      13.45       9.32      14.26
O      13.45       1.41      17.92
O      13.45      17.92       9.32
O      13.45      14.26       1.41
O       7.35      12.89       6.02
O       7.35      19.29       4.71
O       7.35       4.71      12.89
O       7.35       6.02      19.29
O       9.09       8.56      15.44
O       9.09       2.16      16.74
O       9.09      16.74       8.56
O       9.09      15.44       2.16
F       8.47      16.09      16.09
F       7.96       5.36       5.36
F       6.71      15.74      14.42
F       6.71      16.44      17.76
F       6.71      17.76      15.74
F       6.71      14.42      16.44
F       9.73       5.71       7.03
F       9.73       5.02       3.69
F       9.73       3.69       5.71
F       9.73       7.03       5.02
F       4.93      16.09      16.09
F      11.50       5.36       5.36
F       1.51       4.04       4.28
F       1.51       6.68       6.44
F       1.51       6.44       4.04
F       1.51       4.28       6.68
F      14.93      17.41      17.17
F      14.93      14.77      15.01
F      14.93      15.01      17.41
F      14.93      17.17      14.77
F      16.18       5.36       5.36
F       0.25      16.09      16.09
F       3.28       5.36       5.36
F      13.15      16.09      16.09
