178

Zn       3.96       7.85       8.84
Zn      -2.08      27.84       9.41
Zn      20.05      29.22      11.58
Zn      18.80      28.15       8.84
Zn      20.05       9.69       0.83
Zn       3.96      23.42      17.42
Zn      18.80      12.58       0.26
Zn      -2.08      12.27       0.83
H      27.23      15.79      17.41
H       4.07      17.83      13.71
H      27.23      11.94      15.29
H       4.07      13.97      11.59
H      -1.54      18.07       4.16
H      18.26      18.50       3.39
H      -1.54      21.93       6.28
H      18.26      22.35       5.51
H      14.68       7.41       4.16
H      13.00      11.30       3.39
H      11.01       6.24       6.28
H       9.33      10.13       5.51
H       9.33      25.02      13.72
H      11.01      26.45      17.41
H      13.00      26.19      11.59
H      14.68      27.62      15.29
H      22.17       6.18       6.17
H      23.82       5.70       6.60
H      23.20       5.43       4.96
H       0.80      12.12       4.70
H       0.20      11.84       3.06
H       1.84      11.36       3.51
H      22.10       6.23       3.50
H      21.14       7.66       3.07
H      21.07       6.99       4.70
H       2.95      10.55       4.97
H       2.86       9.90       6.61
H       1.91      11.32       6.16
H      21.06      27.39      15.94
H      21.15      28.42      14.50
H      22.10      28.80      15.94
H       1.91      23.84      13.07
H       2.87      24.23      14.50
H       2.94      25.26      13.06
H      23.21      27.99      17.41
H      23.81      26.46      18.04
H      22.17      26.58      17.40
H       1.84      26.06      11.60
H       0.19      26.17      10.96
H       0.81      24.64      11.60
C       6.67       7.07       7.92
C      22.38      27.51      12.34
C      27.65       9.28      11.42
C      17.34      28.02      11.42
C       1.63       7.58       7.00
C      20.36      25.81       7.92
C       3.65      20.48      17.59
C       1.63      25.13      16.67
C      17.34      10.47       1.75
C      20.36      14.61       1.75
C      22.37       9.97       2.67
C       6.67      24.62      17.59
C       0.79       8.19       5.89
C      23.22       9.35       3.78
C      23.68       7.49       5.35
C       0.33      10.05       4.31
C      22.89       8.07       4.31
C       1.12       9.48       5.35
C      23.22      26.90      13.45
C       0.79      25.74      15.55
C      22.89      27.14      14.82
C       1.12      25.50      14.18
C      23.68      26.56      15.86
C       0.33      26.08      13.14
C      27.65      19.17      16.86
C      27.42      17.93      17.53
C      27.42      16.71      16.86
C      27.65      16.65      15.48
C       3.88      17.85      14.79
C       3.88      19.07      15.46
C      27.65      15.42      14.80
C      27.65      14.35      14.21
C      27.65      13.11      13.53
C      27.42      11.91      14.22
C      27.42      10.70      13.55
C      27.65      10.60      12.14
C       3.88      11.84      11.47
C       3.88      13.06      12.14
C      -3.65      15.93       2.47
C      -2.47      16.48       3.06
C      -2.46      17.69       3.73
C      -3.65      18.44       3.86
C      19.18      17.93       3.30
C      19.18      16.72       2.62
C      20.36      19.68       4.54
C      20.36      20.75       5.13
C      20.36      21.98       5.81
C      -2.46      22.49       6.37
C      -2.47      23.71       7.05
C      20.36      24.50       7.20
C      19.19      23.95       6.61
C      19.18      22.73       5.94
C      16.09      10.07       2.47
C      15.92       8.79       3.06
C      14.76       8.41       3.73
C      13.69       9.31       3.86
C      13.82      10.59       3.30
C      14.98      10.96       2.62
C      12.51       8.94       4.54
C      11.50       8.61       5.13
C      10.32       8.24       5.81
C      10.19       6.95       6.37
C       9.03       6.59       7.04
C       7.92       7.47       7.19
C       8.09       8.76       6.61
C       9.25       9.14       5.94
C       7.92      25.02      16.86
C       8.09      24.83      15.46
C       9.25      25.19      14.79
C      10.32      25.78      15.48
C      10.19      25.99      16.86
C       9.03      25.62      17.53
C      11.50      26.16      14.80
C      12.51      26.48      14.21
C      13.69      26.86      13.53
C      13.82      26.65      12.14
C      14.98      27.02      11.47
C      16.09      27.62      12.14
C      15.92      27.81      13.55
C      14.76      27.45      14.22
C      23.21       6.13       5.81
C       0.80      11.42       3.85
C      21.73       7.21       3.86
C       2.28      10.34       5.81
C      21.73      27.99      15.30
C       2.28      24.66      13.70
C      23.21      26.90      17.26
C       0.80      25.73      11.74
Br      19.80       5.51       0.06
Br       4.21      20.54      14.29
Br      19.80      32.10      14.72
Br       4.21      12.04       9.60
Br      -0.74      15.66       3.04
Br      17.46      16.26       1.95
Br      -0.74      24.16       7.72
Br      17.46      24.76       6.63
Br      17.22       7.39       3.04
Br      14.88      12.74       1.95
Br       1.83      27.68       7.72
Br       6.79      10.16       6.63
Br       6.79      24.06      14.29
Br       1.83      13.78       0.06
Br      14.89      26.64       9.60
Br      17.22      28.58      14.72
O      -3.64      28.98       9.67
O       5.75       7.95       8.03
O      -1.31      27.30      11.12
O      27.40       8.24      12.10
O       6.61       5.89       8.37
O       3.90       9.30      10.17
O      21.37      28.24      12.64
O      18.26      28.58      12.10
O      25.32       6.43       7.47
O      17.40      27.77      10.17
O       2.64       8.22       7.45
O      -2.53      26.23       8.38
O      19.25      26.42       8.03
O      27.65      23.66      19.34
O      27.40      20.47      18.83
O       2.63      24.38      16.37
O      17.40      11.66       1.29
O       3.90      21.53      16.91
O      18.26       9.60       1.64
O      25.34      25.36      17.89
O      19.25      14.19       1.29
O      -1.33      11.12       2.22
O      -2.53      14.00       1.64
O      21.38       9.32       2.20
O       5.75      24.06      16.91
O       6.61      24.87      18.84
