82

Zn       5.90       7.74       9.83
Zn       5.90      10.54       9.83
H       5.87      11.29      14.08
H       5.93       6.99       5.59
H       5.92      11.28       5.59
H       5.88       6.99      14.08
H       3.90       8.20      18.41
H       7.90      10.07       1.26
H       4.03       8.20       1.22
H       7.77      10.08      18.45
H       7.24       5.62      11.40
H       4.56      12.66       8.27
H       4.55       5.62       8.27
H       7.25      12.66      11.40
H       7.29       3.11      11.49
H       4.51      15.16       8.18
H       4.50       3.12       8.18
H       7.30      15.16      11.49
H       3.79       1.23       9.36
H       8.01      17.04      10.31
H       8.00       1.24      10.31
H       3.80      17.04       9.36
H       5.83      12.25      16.12
H       5.97       6.02       3.54
H       5.93      12.25       3.54
H       5.87       6.02      16.13
C       5.90       9.14       7.22
C       5.90       9.14      12.45
C       5.96       9.14       1.41
C       5.83       9.14      18.26
C       6.65       5.01      10.71
C       5.15      13.27       8.96
C       5.14       5.01       8.96
C       6.66      13.27      10.71
C       6.68       3.62      10.74
C       5.12      14.66       8.93
C       5.11       3.62       8.93
C       6.69      14.66      10.74
C       5.89       2.89       9.83
C       5.91      15.39       9.83
C       4.72       0.70       9.55
C       7.08      17.58      10.12
C       7.07       0.70      10.12
C       4.73      17.58       9.55
C       5.91      16.86       9.83
C       5.89       1.42       9.83
C       3.27       9.14       9.81
C       8.53       9.14       9.86
C       1.83       9.14       9.81
C       9.97       9.14       9.86
C       0.60       9.14       9.83
C      11.20       9.14       9.84
C       5.88      10.35      14.64
C       5.92       7.93       5.03
C       5.93      10.35       5.03
C       5.87       7.93      14.64
C       5.87      10.34      16.04
C       5.93       7.94       3.63
C       5.95      10.34       3.63
C       5.85       7.94      16.04
C       5.85       9.14      16.77
C       5.95       9.14       2.89
C       5.89       9.14      13.94
C       5.91       9.14       5.72
C       4.74       8.61      18.96
C       7.06       9.67       0.71
C       4.89       8.61       0.68
C       6.91       9.67      18.98
N       5.90       5.69       9.83
N       5.90      12.59       9.83
O       5.89       8.00       7.80
O       5.91      10.27      11.86
O       5.90       8.01      11.86
O       5.90      10.27       7.80
O       3.83       8.00       9.81
O       7.97      10.28       9.85
O       7.96       8.00       9.86
O       3.84      10.28       9.81
O       5.85      11.52      16.76
O       5.95       6.76       2.91
O       5.95      11.51       2.91
O       5.85       6.77      16.76
