68

Al       3.89      10.46       0.00
Al       3.89      10.46      12.08
H       2.15      12.27       8.16
H       1.82       8.01       8.67
H       2.00       7.68       6.21
H       2.15       8.65       3.92
H       1.81      12.91       3.41
H       2.00      13.24       5.87
H       2.15      12.95      15.61
H       1.82      14.64      11.66
H       2.00      16.94      12.60
H       2.15      18.44      14.59
H       1.81       6.29       0.42
H       2.00      14.45      17.60
H       2.15      27.09      12.48
H       1.82      29.66      15.91
H       2.00      27.70      17.43
H       2.15      25.23      17.73
H       1.81      22.65      14.30
H       2.00      24.62      12.78
C       1.93      22.64      16.99
C       1.93      10.59       2.05
C       1.93      19.09      17.21
C       1.93      10.34      10.03
C       1.93      12.30      13.00
C       1.93       8.75      13.22
C       2.10      11.27       7.73
C       1.92       8.86       8.00
C       2.01       8.69       6.64
C       2.08       9.80       5.76
C       2.10       9.65       4.35
C       1.92      12.06       4.08
C       2.01      12.24       5.44
C       2.08      11.12       6.32
C       1.99      10.17       8.55
C       1.99      10.76       3.53
C       2.10      13.83      14.96
C       1.92      14.80      12.74
C       2.01      16.07      13.26
C       2.07      16.27      14.67
C       2.10      17.56      15.24
C       1.92      16.59      17.46
C       2.01      15.33      16.94
C       2.07      15.12      15.53
C       1.99      13.67      13.59
C       1.99      17.72      16.61
C       2.10      27.21      13.56
C       1.92      28.66      15.51
C       2.01      27.57      16.34
C       2.08      26.25      15.82
C       2.10      25.10      16.65
C       1.92      23.66      14.70
C       2.01      24.75      13.86
C       2.08      26.07      14.39
C       1.99      28.48      14.10
C       1.99      23.84      16.10
O       0.97      19.32      18.02
O       0.97      21.82      16.78
O       0.97      11.18       1.44
O       2.83      19.93      16.87
O       2.83       9.88       1.49
O       2.83      22.51      17.88
O       0.97       9.57      13.42
O       0.97       9.75      10.64
O       0.97      12.07      12.19
O       2.83       8.88      12.32
O       2.83      11.46      13.33
O       2.83      11.05      10.59
