324

Cd       0.77      13.24       7.03
Cd       5.14      23.69      16.26
Cd       3.61      11.38       7.03
Cd       7.98       0.93      16.26
Cd       7.98      11.38      39.54
Cd       3.61       0.93      30.31
Cd       5.14      13.24      39.54
Cd       0.77      23.69      30.31
Cd       6.56      12.31       8.50
Cd       2.19      24.62      14.79
Cd       2.19      12.31      38.07
Cd       6.56      24.62      31.78
H       0.05      11.16      11.56
H       0.28       9.30      13.20
H       2.00       6.83      10.12
H       1.86       8.72       8.52
H       8.23       7.28      13.86
H       8.23       5.17      15.17
H       2.99       3.85      13.07
H       3.04       5.97      11.80
H       4.77      13.51       4.05
H       4.76      13.50       1.57
H       7.31      10.29      46.30
H       7.35      10.32      43.81
H       4.43       1.15      11.72
H       4.65       3.01      10.08
H       6.37       5.48      13.17
H       6.23       3.59      14.76
H       3.86       5.03       9.43
H       3.86       7.15       8.12
H       7.36       8.46      10.22
H       7.41       6.34      11.49
H       0.40      23.43      19.23
H       0.38      23.44      21.71
H       2.94       2.02      23.55
H       2.98       1.99      26.05
H       4.32      13.46      11.56
H       4.10      15.32      13.20
H       2.38      17.79      10.12
H       2.51      15.90       8.52
H       4.89      17.34      13.86
H       4.89      19.46      15.17
H       1.39      20.78      13.07
H       1.33      18.65      11.80
H       8.35      11.12       4.05
H       8.36      11.12       1.57
H       5.80      14.33      46.30
H       5.77      14.30      43.81
H       8.69      23.47      11.72
H       8.47      21.62      10.08
H       6.75      19.14      13.17
H       6.89      21.04      14.76
H       0.51      19.59       9.43
H       0.51      17.48       8.12
H       5.76      16.16      10.22
H       5.70      18.29      11.49
H       3.97       1.19      19.23
H       3.99       1.19      21.71
H       1.43      22.61      23.55
H       1.39      22.63      26.05
H       8.69      13.46      35.01
H       8.47      15.32      33.37
H       6.75      17.79      36.45
H       6.89      15.90      38.04
H       0.51      17.34      32.71
H       0.51      19.46      31.40
H       5.76      20.78      33.50
H       5.70      18.65      34.77
H       3.97      11.12      42.52
H       3.99      11.12      45.00
H       1.43      14.33       0.27
H       1.39      14.30       2.76
H       4.32      23.47      34.85
H       4.10      21.62      36.49
H       2.38      19.14      33.40
H       2.51      21.04      31.81
H       4.89      19.59      37.14
H       4.89      17.48      38.45
H       1.39      16.16      36.35
H       1.33      18.29      35.08
H       8.35       1.19      27.34
H       8.36       1.19      24.85
H       5.80      22.61      23.01
H       5.77      22.63      20.52
H       4.43      11.16      35.01
H       4.65       9.30      33.37
H       6.37       6.83      36.45
H       6.23       8.72      38.04
H       3.86       7.28      32.71
H       3.86       5.17      31.40
H       7.36       3.85      33.50
H       7.41       5.97      34.77
H       0.40      13.51      42.52
H       0.38      13.50      45.00
H       2.94      10.29       0.27
H       2.98      10.32       2.76
H       0.05       1.15      34.85
H       0.28       3.01      36.49
H       2.00       5.48      33.40
H       1.86       3.59      31.81
H       8.23       5.03      37.14
H       8.23       7.15      38.45
H       2.99       8.46      36.35
H       3.04       6.34      35.08
H       4.77      23.43      27.34
H       4.76      23.44      24.85
H       7.31       2.02      23.01
H       7.35       1.99      20.52
C       0.80      11.16       8.96
C       0.94      10.06       9.94
C       0.49      10.21      11.26
C       0.61       9.16      12.17
C       1.16       7.93      11.78
C       1.60       7.79      10.45
C       1.51       8.84       9.55
C       1.24       6.77      12.69
C       0.27       6.54      13.69
C       0.26       5.36      14.42
C       1.21       4.36      14.17
C       2.23       4.61      13.24
C       2.24       5.80      12.52
C       1.11       3.01      14.81
C       5.55      12.99       3.50
C       5.56      12.99       2.11
C       6.99      11.18      45.76
C       7.00      11.19      44.37
C       5.18       1.15      14.32
C       5.32       2.25      13.34
C       4.86       2.10      12.02
C       4.98       3.15      11.11
C       5.53       4.38      11.50
C       5.98       4.52      12.83
C       5.89       3.47      13.73
C       5.61       5.55      10.59
C       4.64       5.77       9.59
C       4.63       6.96       8.86
C       5.59       7.95       9.11
C       6.60       7.70      10.05
C       6.62       6.52      10.77
C       5.49       9.30       8.48
C       1.18      23.95      19.79
C       1.19      23.94      21.18
C       2.62       1.13      24.10
C       2.63       1.12      25.49
C       3.57      13.47       8.96
C       3.43      14.57       9.94
C       3.88      14.41      11.26
C       3.76      15.46      12.17
C       3.21      16.70      11.78
C       2.77      16.83      10.45
C       2.86      15.78       9.55
C       3.14      17.86      12.69
C       4.10      18.08      13.69
C       4.11      19.27      14.42
C       3.16      20.26      14.17
C       2.15      20.01      13.24
C       2.13      18.83      12.52
C       3.26      21.62      14.81
C       7.57      11.64       3.50
C       7.56      11.63       2.11
C       6.12      13.44      45.76
C       6.11      13.44      44.37
C       7.94      23.47      14.32
C       7.80      22.37      13.34
C       8.25      22.52      12.02
C       8.14      21.47      11.11
C       7.59      20.24      11.50
C       7.14      20.10      12.83
C       7.23      21.15      13.73
C       7.51      19.08      10.59
C       8.48      18.85       9.59
C       8.49      17.67       8.86
C       7.53      16.67       9.11
C       6.52      16.92      10.05
C       6.50      18.11      10.77
C       7.63      15.32       8.48
C       3.19       0.68      19.79
C       3.19       0.68      21.18
C       1.75      23.50      24.09
C       1.74      23.50      25.49
C       7.94      13.47      37.61
C       7.80      14.57      36.62
C       8.25      14.41      35.30
C       8.14      15.46      34.40
C       7.59      16.70      34.79
C       7.14      16.83      36.12
C       7.23      15.78      37.02
C       7.51      17.86      33.88
C       8.48      18.08      32.88
C       8.49      19.27      32.15
C       7.53      20.26      32.40
C       6.52      20.01      33.33
C       6.50      18.83      34.05
C       7.63      21.62      31.76
C       3.19      11.64      43.07
C       3.19      11.63      44.46
C       1.75      13.44       0.81
C       1.74      13.44       2.20
C       3.57      23.47      32.24
C       3.43      22.37      33.23
C       3.88      22.52      34.55
C       3.76      21.47      35.46
C       3.21      20.24      35.07
C       2.77      20.10      33.74
C       2.86      21.15      32.83
C       3.14      19.08      35.98
C       4.10      18.85      36.98
C       4.11      17.67      37.71
C       3.16      16.67      37.45
C       2.15      16.92      36.52
C       2.13      18.11      35.80
C       3.26      15.32      38.09
C       7.57       0.68      26.78
C       7.56       0.68      25.39
C       6.12      23.50      22.47
C       6.11      23.50      21.08
C       5.18      11.16      37.61
C       5.32      10.06      36.62
C       4.86      10.21      35.30
C       4.98       9.16      34.40
C       5.53       7.93      34.79
C       5.98       7.79      36.12
C       5.89       8.84      37.02
C       5.61       6.77      33.88
C       4.64       6.54      32.88
C       4.63       5.36      32.15
C       5.59       4.36      32.40
C       6.60       4.61      33.33
C       6.62       5.80      34.05
C       5.49       3.01      31.76
C       1.18      12.99      43.07
C       1.19      12.99      44.46
C       2.62      11.18       0.81
C       2.63      11.19       2.20
C       0.80       1.15      32.24
C       0.94       2.25      33.23
C       0.49       2.10      34.55
C       0.61       3.15      35.46
C       1.16       4.38      35.07
C       1.60       4.52      33.74
C       1.51       3.47      32.83
C       1.24       5.55      35.98
C       0.27       5.77      36.98
C       0.26       6.96      37.71
C       1.21       7.95      37.45
C       2.23       7.70      36.52
C       2.24       6.52      35.80
C       1.11       9.30      38.09
C       5.55      23.95      26.78
C       5.56      23.94      25.39
C       6.99       1.13      22.47
C       7.00       1.12      21.08
C       6.56      12.31       5.68
C       6.56      12.31       4.20
C       6.56      12.31       1.39
C       6.56      12.31      46.48
C       6.56      12.31      43.66
C       6.56      12.31      42.16
C       2.19      -0.00      17.60
C       2.19      24.62      19.08
C       2.19      24.62      21.90
C       2.19      24.62      23.37
C       2.19      24.62      26.20
C       2.19      24.62      27.69
C       2.19      12.31      40.89
C       2.19      12.31      42.37
C       2.19      12.31      45.18
C       2.19      12.31       0.09
C       2.19      12.31       2.91
C       2.19      12.31       4.41
C       6.56      24.62      28.97
C       6.56      -0.00      27.49
C       6.56      -0.00      24.67
C       6.56      -0.00      23.20
C       6.56       0.00      20.37
C       6.56       0.00      18.88
O       0.08      12.18       9.24
O       1.41      11.07       7.83
O       0.16       2.82      15.64
O       1.98       2.15      14.44
O       7.64      12.04       6.32
O       7.12      11.32      41.58
O       4.45       0.13      14.05
O       5.78       1.24      15.45
O       4.53       9.49       7.65
O       6.36      10.16       8.84
O       3.26       0.28      16.96
O       2.75       0.99      28.27
O       4.29      12.44       9.24
O       2.96      13.55       7.83
O       4.22      21.80      15.64
O       2.39      22.47      14.44
O       5.48      12.59       6.32
O       5.99      13.30      41.58
O       8.67      24.49      14.05
O       7.34      23.38      15.45
O       8.59      15.13       7.65
O       6.76      14.46       8.84
O       1.11      24.35      16.96
O       1.62      23.63      28.27
O       8.67      12.44      37.33
O       7.34      13.55      38.74
O       8.59      21.80      30.93
O       6.76      22.47      32.13
O       1.11      12.59      40.25
O       1.62      13.30       4.99
O       4.29      24.49      32.52
O       2.96      23.38      31.12
O       4.22      15.13      38.92
O       2.39      14.46      37.72
O       5.48      24.35      29.60
O       5.99      23.63      18.30
O       4.45      12.18      37.33
O       5.78      11.07      38.74
O       4.53       2.82      30.93
O       6.36       2.15      32.13
O       3.26      12.04      40.25
O       2.75      11.32       4.99
O       0.08       0.13      32.52
O       1.41       1.24      31.12
O       0.16       9.49      38.92
O       1.98      10.16      37.72
O       7.64       0.28      29.60
O       7.12       0.99      18.30
