45

Al       6.25       7.07       6.11
Al       9.58       7.12       6.09
H       4.56       6.43       7.72
H       7.88       8.54       5.11
H       9.14      11.19       6.51
H       6.71      11.13       5.67
H       5.88       3.06       6.55
H       5.98       8.76       9.92
H       9.95       7.13      10.19
H       7.55       4.25       0.35
H       6.54       5.39       2.32
H       2.56       7.00       2.06
H       4.97       9.89      11.89
H       3.53       4.05       5.70
C       7.88       7.50       8.49
C       7.97       4.67       6.15
C       4.63       6.64       3.75
C       4.56       9.52       6.05
C       7.98       3.19       6.13
C       4.60      11.01       6.09
C       2.52       2.47       5.88
C      10.06      11.73       6.34
C       5.79      11.69       5.87
C       6.78       2.49       6.37
C       6.88       8.56      10.51
C       9.12       7.64      10.68
C       9.20       8.02      12.00
C       5.58       5.16       0.39
C       5.64       5.58       1.73
C       3.39       6.50       1.57
C       3.31       6.12       0.25
C       6.94       8.99      11.86
C       7.95       7.90       9.92
C       4.57       6.24       2.32
O       6.73       7.52       7.93
O       2.44       5.27       5.93
O       3.55       7.03       4.29
O       5.66       8.90       5.85
O       5.76       6.57       4.34
O      10.07       8.97       6.21
O       8.97       7.16       7.93
O       6.88       5.28       6.37
O       4.58       6.56       6.76
O       7.91       7.64       5.48
O       3.70       3.07       5.64
