123

Cu       5.38      16.33       3.36
Cu       3.02      16.42       5.48
Cu       5.29      18.68       5.48
Cu       5.30       5.29      19.03
Cu       2.96       5.26      16.89
Cu       5.18       2.95      16.90
Cu      16.37      16.34      19.03
Cu      18.72      16.44      16.91
Cu      16.41      18.66      16.89
Cu      16.44       5.18       3.09
Cu      18.64       5.25       5.38
Cu      16.36       2.99       5.37
Si      21.51       0.04      11.17
Si       0.10      10.86       0.03
Si      10.86      21.59       0.03
H       4.43      13.93       1.53
H       1.11      14.15       4.30
H       7.56      20.59       4.30
H       7.78      17.27       1.53
H       1.20      17.44       7.86
H       4.27      20.51       7.85
H       4.39       7.70      20.87
H       1.09       7.56      18.06
H       7.40       0.98      18.08
H       7.68       4.29      20.87
H       1.14       4.28      14.49
H       4.13       1.15      14.51
H      17.34      13.96      20.87
H      20.66      14.20      18.09
H      14.11      20.56      18.06
H      13.95      17.25      20.86
H      20.51      17.47      14.51
H      17.40      20.49      14.49
H      17.49       7.50       1.21
H      20.49       7.63       4.33
H      13.98       1.15       4.33
H      14.11       4.15       1.20
H      20.41       4.26       7.81
H      17.33       1.20       7.79
C       3.74      14.14       2.33
C       2.46      13.60       2.59
C       2.04      14.26       3.76
C       7.45      19.66       3.75
C       8.11      19.23       2.58
C       7.56      17.96       2.33
C       2.07      18.07       7.69
C       2.43      19.28       8.31
C       3.64      19.64       7.68
C       3.70       7.50      20.05
C       2.44       8.07      19.79
C       2.01       7.43      18.61
C       7.30       1.91      18.63
C       7.97       2.33      19.80
C       7.45       3.61      20.06
C       1.99       3.64      14.67
C       2.33       2.42      14.04
C       3.53       2.03      14.68
C      18.03      14.18      20.07
C      19.31      13.65      19.81
C      19.73      14.31      18.64
C      14.24      19.63      18.61
C      13.59      19.20      19.79
C      14.16      17.94      20.05
C      19.64      18.09      14.68
C      19.25      19.28      14.04
C      18.04      19.63      14.67
C      18.10       7.36       2.09
C      19.30       8.01       2.46
C      19.64       7.43       3.69
C      14.18       2.00       3.69
C      13.60       2.34       2.45
C      14.25       3.54       2.08
C      19.54       3.63       7.63
C      19.16       2.43       8.27
C      17.97       2.07       7.62
C       1.76      12.67       1.81
C       1.13      11.89       1.11
C       1.74       9.01      20.57
C       1.11       9.80      21.26
C      20.01      12.70      20.58
C      20.63      11.90      21.27
C      20.01       8.98       1.72
C      20.63       9.79       1.06
C       9.04      19.94       1.81
C       9.82      20.57       1.11
C      12.63       1.63       1.72
C      11.82       0.99       1.06
C       8.89       1.61      20.58
C       9.67       0.97      21.28
C      12.66      19.91      20.57
C      11.87      20.53      21.27
C       1.72      19.99       9.29
C       1.09      20.64      10.12
C      19.95      20.00      13.06
C      20.58      20.65      12.23
C      19.86       1.72       9.26
C      20.48       1.09      10.11
C       1.61       1.72      13.06
C       0.97       1.08      12.23
N       2.98      15.13       4.16
N       4.04      15.06       3.28
N       6.65      17.66       3.28
N       6.58      18.72       4.16
N       3.96      18.72       6.75
N       2.98      17.75       6.76
N       2.94       6.54      18.21
N       3.99       6.59      19.11
N       6.55       3.93      19.11
N       6.46       2.88      18.23
N       3.86       2.94      15.61
N       2.91       3.94      15.60
N      18.78      15.17      18.24
N      17.73      15.09      19.13
N      15.07      17.65      19.10
N      15.12      18.69      18.21
N      17.74      18.71      15.61
N      18.73      17.76      15.61
N      18.72       6.50       4.03
N      17.77       6.47       3.03
N      15.14       3.87       3.03
N      15.10       2.92       4.02
N      17.66       2.98       6.68
N      18.64       3.95       6.68
