176

Al       5.64      11.89      12.81
Al       2.29      11.84      12.80
Al       2.34      20.82       0.02
Al       5.70       2.91      25.59
H       2.43       3.77       5.55
H       5.79      19.96      20.06
H       2.51       8.43      10.28
H       5.87      15.30      15.32
H       1.76       9.60      19.50
H       5.11      14.13       6.10
H       5.42       5.26       3.95
H       2.07      18.48      21.66
H       1.92       5.50      19.34
H       5.27      18.23       6.28
H       5.23       6.97      20.06
H       1.87      16.77       5.55
H       4.68       3.72      20.04
H       1.32      20.01       5.58
H       6.45       6.54      17.38
H       3.10      17.18       8.23
H       5.36       7.80      17.89
H       2.00      15.93       7.72
H       2.76      10.29      22.30
H       6.12      13.44       3.31
H       4.44       8.01      22.41
H       1.08      15.73       3.20
H       2.82       6.72      20.23
H       6.17      17.02       5.38
H       4.42       9.51      19.23
H       1.06      14.23       6.38
H       5.46       3.44       2.23
H       2.11      20.29      23.38
H       0.35      12.38      18.96
H       3.71      11.35       6.65
H       3.00      20.64       4.12
H       6.38       3.09      21.47
H       3.69       7.62       5.97
H       0.34      16.11      19.64
H       5.34       9.95       9.28
H       1.98      13.79      16.32
H       2.38       6.83       8.36
H       5.73      16.90      17.24
H       3.46       5.21      16.43
H       0.10      18.52       9.18
H       3.98      10.32      13.57
H       0.63      13.41      12.04
H       4.00       4.53      25.03
H       0.64      19.19       0.58
C       3.96      13.21      10.82
C       0.60      10.52      14.79
C       3.95      13.57      14.50
C       0.60      10.16      11.10
C       6.25       4.55       3.91
C       2.90      19.18      21.70
C       6.27       3.54       2.95
C       2.92      20.19      22.65
C       0.61       2.62       2.90
C       3.97      21.11      22.71
C       1.64       2.70       3.86
C       5.00      21.03      21.74
C       1.63       3.72       4.81
C       4.99      20.01      20.79
C       0.58       4.66       4.84
C       3.94      19.07      20.76
C       0.56       5.68       5.82
C       3.92      18.05      19.79
C       0.45       6.55       6.66
C       3.81      17.17      18.94
C       6.08       8.41       7.97
C       2.72      15.32      17.64
C       6.16       9.27       9.07
C       2.81      14.47      16.54
C       0.56       9.26       9.91
C       3.92      14.47      15.70
C       1.64       8.40       9.64
C       4.99      15.33      15.97
C       1.56       7.53       8.57
C       4.92      16.20      17.04
C       0.43       7.49       7.72
C       3.79      16.24      17.89
C       1.94       6.56      19.59
C       5.29      17.17       6.02
C       6.09       6.57      19.53
C       2.73      17.16       6.08
C       6.26       7.27      18.18
C       2.90      16.46       7.43
C       0.61       9.76      16.01
C       3.96      13.97       9.60
C       0.65       6.86      20.42
C       4.01      16.88       5.19
C       2.04       7.41      18.29
C       5.39      16.32       7.31
C       0.72       8.26      18.20
C       4.07      15.47       7.41
C       0.74       9.21      19.47
C       4.10      14.53       6.14
C       0.58       8.38      20.82
C       3.94      15.35       4.79
C       0.68       9.07      17.00
C       4.03      14.65       8.60
C       0.67       5.98      21.59
C       4.02      17.75       4.02
C       0.69       5.21      22.52
C       4.04      18.53       3.09
C       4.01      22.08      23.84
C       0.64       1.65       1.77
C       4.03      19.34       1.90
C       0.68       4.39      23.71
C       5.86       5.08      19.39
C       2.50      18.65       6.23
C       1.79       8.77      21.72
C       5.15      14.96       3.89
C       6.01       8.78      21.61
C       2.65      14.95       3.99
C       3.21       8.39      18.21
C       6.56      15.34       7.40
C       6.65      10.49      19.26
C       3.29      13.24       6.35
C       2.73       1.69       3.97
C       6.10      22.04      21.64
C       4.85       8.53       7.14
C       1.49      15.20      18.46
C       2.23       6.50      17.06
C       5.59      17.23       8.55
O       2.82      13.20      14.06
O       6.18      10.53      11.55
O       5.09      12.93      11.31
O       1.74      10.80      14.29
O       5.10      13.28      14.04
O       1.74      10.45      11.57
O       6.18      10.84      14.31
O       2.82      12.89      11.29
O       3.97      11.05      12.93
O       0.62      12.68      12.68
O       5.16      19.65       1.40
O       1.81       4.07      24.20
O       2.89      22.41      24.34
O       6.23       1.31       1.28
O       2.89      19.67       1.46
O       6.25       4.07      24.16
O       1.79       1.28       1.36
O       5.16      22.45      24.25
O       4.02       3.72      25.55
O       0.66      20.01       0.06
O       6.58       4.30      18.78
O       4.74       4.71      20.05
O       3.22      19.43       6.84
O       1.38      19.03       5.57
O       2.55       7.98      22.27
O       1.93      10.10      21.81
O       5.90      15.76       3.34
O       5.29      13.63       3.80
O       5.67       9.95      21.76
O       5.35       7.74      22.12
O       2.31      13.79       3.85
O       1.99      16.00       3.49
O       3.61       8.81      17.13
O       3.71       8.78      19.40
O       0.25      14.92       8.48
O       0.35      14.96       6.21
O       5.44      10.60      19.04
O       0.78      11.52      19.23
O       2.08      13.13       6.57
O       4.13      12.21       6.38
O       3.92       1.94       4.01
O       2.24      21.25       4.11
O       0.58      21.78      21.59
O       5.61       2.48      21.49
O       4.12       9.53       7.12
O       4.53       7.42       6.43
O       0.77      14.21      18.49
O       1.18      16.31      19.18
O       1.54       6.44      16.07
O       3.36       5.75      17.24
O       4.89      17.29       9.54
O       6.71      17.98       8.37
