186

Al      12.24       7.09      13.95
Al       9.03       6.94      14.01
Al      10.55       4.36      14.04
Al       2.13       0.86      27.99
Al       3.16       3.73       0.02
Al       4.75       1.19       0.02
H      14.84       2.02       8.48
H       4.59       0.20       6.10
H       2.90       0.29       6.59
H       8.86       8.86       5.98
H       8.09       6.14       7.33
H       8.58       2.45      22.24
H       5.62       3.35      19.46
H       6.29       1.95      21.92
H       5.07       3.21      21.69
H       7.61       6.31      20.14
H       5.99       5.64      19.90
H      14.59       1.78       6.16
H       8.85       3.98       5.66
H       9.42       4.87      20.66
H       9.17       4.02      22.82
H      12.86       6.08      20.56
H      16.29       4.52      21.94
H      12.87       2.40      20.02
H       8.20       2.15       7.73
H      14.54       2.25      19.45
H      13.80       1.90      22.14
H      11.74       4.76      20.14
H      12.96       5.90       8.06
H      12.13       3.59      22.15
H       1.86       2.35      21.63
H       9.34       9.09      22.68
H       8.99       8.52      20.44
H       8.49      10.84      19.91
H       8.86      11.53      22.11
H       5.54       2.01       6.76
H       3.47       0.38      21.58
H      12.54       9.42      19.73
H      12.25      11.10      19.28
H      13.41       5.91       5.77
H      10.64       7.90      20.34
H      10.99       8.46      22.58
H      12.47      11.78      21.48
H      12.18       2.36       5.74
H       2.16       3.53       8.30
H      11.70       4.06       5.83
H      15.11       5.51       6.05
H      12.28      10.09       6.01
H       4.80       4.16       8.41
H      12.00      11.27       8.05
H      14.28       7.99      14.66
H      20.05      11.81       0.68
C      10.31       8.55      12.14
C       7.55       4.38       9.72
C      12.34       3.21       7.73
C       8.44       4.84      12.18
C      14.84       2.99       7.97
C      14.86       2.81       6.45
C      14.18       3.58       3.15
C      13.62       3.84       8.39
C      12.43       3.32       6.20
C      13.84       3.78       5.78
C      14.08       5.22       6.29
C       7.89       4.55      10.89
C      13.83       5.27       7.80
C      13.98       3.70       4.34
C      13.44       3.93       9.82
C      12.59       4.64      12.21
C      13.16       4.16      10.98
C      11.20       9.04       7.57
C      10.92      11.44       8.00
C      10.50      11.84       6.59
C      10.22      11.23       3.20
C      10.27      10.05       8.37
C       6.12       2.92       6.89
C      11.34       9.54       6.09
C      10.19      10.55       5.77
C       8.85       9.92       6.26
C       8.77      10.01       7.80
C      10.34       8.49      15.88
C      10.19      10.88       4.36
C      10.28       9.73       9.78
C      10.26       9.29      10.91
C       8.87       3.92      20.67
C       6.49       3.07      20.06
C       6.48       3.92       5.71
C       6.13       2.96      21.55
C       6.43       3.54      24.97
C       7.58       4.15      19.83
C       8.49       3.53      22.11
C       7.01       3.92      22.40
C       8.46       4.85      15.89
C       6.74       5.37      21.92
C       6.96       5.47      20.39
C       6.71       3.74      23.81
C       7.85       4.33      18.41
C       7.59       3.00       7.42
C       8.03       4.54      17.23
C      12.71       4.99      20.59
C      15.16       5.01      20.15
C      15.31       4.96      21.72
C      14.82       3.61      24.89
C      13.83       4.30      19.75
C      12.57       4.80      15.91
C      12.77       4.48      22.03
C      14.23       4.02      22.33
C      14.37       2.65      21.59
C       7.18       4.20       8.37
C      13.89       2.80      20.14
C      14.50       3.83      23.74
C      13.52       4.44      18.34
C      13.14       4.52      17.19
C      10.04       8.77      20.63
C       9.54      11.14      20.07
C       9.79      11.55      21.54
C       5.70       4.11       7.80
C      10.94      11.27      24.78
C      10.45       9.95      19.70
C       7.95       4.01       6.28
C      10.27       9.14      22.11
C      10.81      10.59      22.21
C      12.13      10.74      21.42
C      11.93      10.30      19.97
C      10.94      10.96      23.61
C      10.30       9.54      18.31
C      10.28       9.13      17.17
C      14.70       3.26       1.85
C       6.07       5.12       6.67
C       5.27       3.30       1.89
C       7.54       5.21       7.19
C      10.17      11.80       1.88
C      15.35       3.24      26.17
C       5.92       3.22      26.27
C      10.83      11.79      26.12
C       5.80       3.61       3.18
C       6.12       3.76       4.35
Br      15.32       6.18       8.73
Br      13.02       9.03       8.38
Br       4.02       0.69       9.31
Br      10.61       7.19       7.73
Br       7.28      10.63       5.35
Br       6.97       1.31      19.29
Br       7.99       6.59      22.87
Br      13.61       9.74      22.27
Cl       5.12       6.49       6.20
Cl       2.98       4.10      19.43
Cl      15.21       6.65      19.47
Cl      15.34       6.54      22.52
Cl       3.07       0.34      18.96
Cl      12.20       1.49       8.22
Cl       2.94       3.06       5.79
Cl      10.84       4.02       8.34
Cl       7.80       8.65       8.43
Cl       7.91      11.46       8.39
Cl      11.46       8.25       4.89
Cl      10.01       2.73      19.96
Cl       5.09       5.90      22.35
Cl      12.07       5.67      23.16
O      12.80       5.84      12.51
O       5.65       2.20       1.36
O      11.31      12.09       1.35
O      11.46       8.24      12.57
O       9.67      12.03      26.54
O      15.06       2.09      26.61
O      16.14       4.10      26.73
O       5.09       4.04      26.79
O       6.28       2.10      26.78
O      11.93      12.01      26.75
O       3.76       1.87      28.06
O       8.13       5.99      15.41
O       9.18       8.22      12.66
O       8.06       5.93      12.74
O       9.30       4.02      12.65
O      11.84       3.80      12.85
O      12.93       5.87      15.34
O      11.48       8.18      15.45
O       9.21       8.27      15.29
O       9.19       3.98      15.30
O      11.70       3.96      15.47
O      10.59       6.12      14.01
O       9.03      12.01       1.38
O      14.45       2.11       1.39
O      15.45       4.15       1.30
O       4.42       4.11       1.38
O      13.72       8.02      13.88
O       0.66      -0.09      27.91
