102

Zn       9.31       5.00       4.78
Zn       7.74       1.87       6.37
Zn      -4.09       2.88       7.84
Zn      -3.05       5.81       6.36
H       8.52       4.18       1.78
H       9.90       8.75       0.26
H       5.29       4.60      12.30
H       2.65       3.44       3.36
H       7.01      -0.17       1.86
H      -0.11       1.39       4.52
H      -1.23       7.40      11.13
H       5.34      -0.03       4.61
H      -2.64      -2.50       9.39
H      -1.67      -4.67       9.12
H       9.87      -3.46       7.41
H       6.30       8.64       7.96
H      -2.15       1.21       6.01
H      -1.19       7.00       8.56
H       8.25      -1.37       6.55
H       6.69       6.26       6.51
H      -1.55       8.18       4.29
H      -5.27       3.92      10.62
H      -2.99      -0.12       8.88
H      -4.48       7.64       8.66
H       9.52       7.06       2.16
H       5.79       2.46       8.73
H      -2.29       4.71       3.46
H      -1.26       6.90       0.81
H      -3.08       3.77      10.73
H       8.19       0.36       3.78
H       3.38       3.68       5.71
H       5.75       0.80      11.13
H      -1.71      10.71       1.95
H       0.10       9.36       0.26
H       1.39       4.51       2.04
H       1.56      12.79       1.14
C       8.43       3.35       2.48
C      -6.58       7.41       7.86
C      10.10      -1.37       7.85
C      -3.19       7.98       2.74
C       7.33       3.16      10.25
C      -1.72       7.85       0.54
C      -0.98       9.20       0.27
C       5.05       0.94       5.00
C       6.03       1.53      11.90
C      -1.99       9.96       1.20
C      -7.88       2.88      11.59
C      -2.74       8.61       1.49
C       5.77       3.65      12.54
C      10.99       8.88       0.26
C       2.00       2.56       3.47
C       7.51       0.06       0.91
C       2.68       1.50       3.99
C       8.14       1.26       0.97
C       0.59       2.90       3.27
C      -2.67       6.71      12.49
C      -2.38       2.15       5.52
C      -1.69       6.09       8.88
C      -0.41       2.30       4.00
C      -1.71       2.76       4.42
C      -1.96       6.60      11.31
C      -3.22      -3.23       8.80
C      -2.71      -4.58       8.79
C      10.43      -2.76       8.03
C      -7.32       8.59       8.26
C      -2.08       5.71      10.19
C       9.04      -0.84       7.07
C       7.68       6.45       6.92
C      -2.51       7.78       3.95
C      -6.04       3.56       9.94
C      -3.89      -0.21       8.28
C      -5.21       7.15       8.03
C      10.33       7.20       2.87
C       6.78       2.81       9.00
C      -2.44       3.95       4.21
C      -2.68       4.45       9.98
C       8.27       1.41       3.51
C       4.08       2.85       5.56
C       8.28       1.98       2.22
C       3.89       1.70       4.75
C       0.42       4.11       2.44
C       2.20      12.38       0.32
I       1.92      -0.49       3.87
I       3.01      -4.32      11.85
N       8.46       3.56       3.81
N       8.74       5.71       6.53
N       9.10       0.50       7.05
N      -3.21       6.93       4.73
N      -5.81       3.44       8.61
N      -4.49       0.89       7.80
N      -4.84       6.14       7.22
N       5.83       1.61       5.87
N      -4.35       6.57       4.06
N       7.71       2.98       8.03
N      -3.42       4.05       5.16
N      -2.70       4.14       8.68
N       8.37       2.35       4.45
N       5.23       2.80       6.22
N      -3.37       2.93       5.95
N      -2.09       5.17       7.98
O      -0.63       4.67       2.14
O      -4.03       4.70      12.41
