194

Zn      10.47       8.49       9.47
Zn       7.55       8.23       9.84
H      11.20       9.77      13.62
H      11.65       4.20       8.98
H       7.35       0.38       7.82
H      10.79      16.57       7.13
H      11.58       1.89       8.00
H       6.81      15.11       8.86
H      10.43      14.42       6.60
H       7.43       2.46       7.00
H      11.26       9.04       5.67
H      11.93       7.74       6.67
H      13.61       9.58       4.87
H       6.67       8.99       5.34
H      14.23       8.21       5.79
H      12.72       6.64       4.45
H      13.86       7.52       3.41
H      12.16       8.02       3.50
H       6.72       4.61      10.67
H       5.98       5.46       9.31
H       4.47       3.65      11.29
H       3.74       4.45       9.90
H       5.26       3.17       8.34
H       4.32       2.05       9.35
H       5.46      10.13       9.42
H       6.03       2.37       9.72
H       1.09       9.64       6.16
H      16.64       8.23       6.85
H       3.30       8.77       6.99
H       2.50       7.35       7.66
H       1.70       6.68       5.36
H       3.47       6.83       5.41
H       2.49       8.11       4.67
H      16.97       5.07      10.60
H       1.39       5.82       9.19
H      12.65       8.22      11.33
H      14.73       5.86       9.75
H      15.51       6.53       8.32
H      16.33       4.23       7.67
H      14.57       4.26       7.83
H      15.56       3.55       9.11
H       1.85       5.85      13.32
H       1.58       7.49      12.69
H       4.13       6.47      14.08
H       4.01       8.03      13.26
H       2.11       8.71      14.76
H       7.66       7.39      14.05
H       3.56       8.33      15.70
H       2.22       7.16      15.63
H      15.87      11.97       6.54
H      16.05      11.70       8.30
H      13.44      12.45       6.85
H      13.57      12.13       8.58
H      15.20      14.06       8.84
H      13.65      14.60       8.16
H      15.06      14.40       7.10
H      15.79       7.15      13.00
H      10.03       6.34       5.69
H      14.30       6.82      12.09
H      14.63       8.91      14.33
H      13.13       8.61      13.44
H      13.10       6.22      14.25
H      13.08       7.35      15.60
H      14.58       6.51      15.18
H       2.47      11.57       7.86
H       4.16      11.04       8.05
H       2.79      13.24       9.70
H       4.49      12.78       9.82
H       7.52       4.74       8.01
H       4.87      13.49       7.42
H       4.21      14.83       8.36
H       3.15      13.92       7.27
H      12.50       9.33      16.95
H      12.62      10.24      15.42
H      11.60      10.83      16.76
H       7.06      10.08       2.26
H       6.22       8.62       1.75
H       5.70       9.46       3.23
H       6.78       5.97      15.48
H      10.46      12.07       7.42
H       6.08       7.52      16.04
H       6.59       4.98      17.69
H       6.26       6.54      18.44
H       4.02       6.66      17.36
H       4.17       5.11      18.20
H       4.33       5.18      16.44
H      10.78       4.30       2.08
H       9.07       4.47       2.53
H      11.37       3.97       4.51
H       9.66       4.03       4.94
H       6.83      12.72       9.59
H       9.22       2.02       3.46
H      10.41       1.65       4.72
H      10.94       1.95       3.05
C       9.54       5.88       9.35
C       8.64      14.95       7.72
C      10.69       2.52       8.00
C       7.60      14.44       8.52
C      10.73       3.80       8.55
C       7.61      13.11       8.94
C       9.39       0.55       7.30
C       8.72      16.39       7.54
C       4.83       9.30       9.75
C      13.23       8.55      10.47
C       3.44       9.42       9.83
C       8.78      10.88       9.12
C      14.61       8.74      10.53
C       2.66       8.28      10.22
C      15.33       9.11       9.35
C       9.24       8.55      12.22
C       8.41       7.95       7.13
C       3.41       7.23      10.84
C      14.51       9.59       8.28
C       4.81       7.19      10.70
C      13.13       9.34       8.29
C       1.21       8.16      10.02
C       9.56       4.57       8.63
C      16.79       8.98       9.22
C      10.53       9.22      14.27
C       7.43       8.38       4.86
C      10.77       9.18      15.65
C       7.52       8.35       3.46
C       9.91       8.40      16.46
C       8.52       7.54       2.87
C       8.78       7.77      15.89
C       9.37       6.75       3.68
C       8.53       7.86      14.52
C       8.66      12.27       8.57
C       9.30       6.86       5.07
C       9.43       8.55      13.71
C       8.35       7.70       5.66
C       8.79       7.65       1.43
C      10.12       8.24      17.90
C      12.17       8.70       6.19
C      13.35       8.58       5.24
C      13.01       7.64       4.09
C       5.78       5.05      10.31
C       4.68       4.00      10.27
C       8.39       4.09       8.02
C       5.09       2.83       9.37
C       1.15       8.89       6.96
C       2.44       8.10       6.85
C       2.53       7.39       5.50
C      16.88       5.88       9.86
C      15.58       5.73       9.07
C      15.51       4.37       8.38
C       2.35       6.72      12.88
C       3.43       7.27      13.80
C       2.79       7.90      15.04
C       9.66      12.75       7.71
C      15.34      11.65       7.45
C      14.12      12.52       7.71
C      14.53      13.97       7.97
C      14.86       7.60      12.64
C      14.04       8.13      13.81
C      13.68       6.99      14.76
C       3.30      11.49       8.57
C       3.65      12.86       9.12
C       3.99      13.83       7.98
C      11.94       9.93      16.22
C       8.35       2.83       7.46
C       6.57       9.17       2.63
C       6.68       6.65      16.35
C       6.07       5.93      17.54
C       4.57       5.71      17.38
C      10.10       4.60       2.90
C      10.36       3.75       4.14
C      10.23       2.26       3.83
C       9.64      14.06       7.27
C       9.48       1.98       7.52
N      10.24       6.98      18.39
N       9.04       8.89       0.95
N       8.93       6.54       0.67
N      10.29       9.33      18.67
N       5.49       8.19      10.12
N      12.52       8.79       9.35
O      10.66       6.44       9.61
O       5.52       6.16      11.22
O       1.01       9.66       8.18
O      16.95       7.10      10.64
O       2.86       6.24      11.61
O      15.00      10.26       7.20
O      15.28       8.63      11.71
O       2.83      10.61       9.63
O       7.98       7.11      16.77
O      10.37       6.01       3.10
O       7.73      10.30       9.55
O       8.39       6.34       9.65
O       9.96      10.40       9.10
O      10.28       8.73      11.51
O       7.32       8.11       7.76
O       8.06       8.34      11.80
O       9.58       8.01       7.62
O      12.35       9.71       7.24
