134

Zn      17.96       8.07      13.17
Zn       5.93       8.63      13.85
H      16.11       8.21      17.13
H       7.57      13.77      12.76
H      12.02      11.11      15.85
H      11.87       5.60      11.13
H      15.35       8.88      13.99
H       8.53       7.78      13.05
H      16.69       5.97      11.42
H       7.21      10.75      15.58
H       9.55      11.46      16.15
H      14.34       5.26      10.83
H      13.87       9.89      14.82
H       7.72       8.71       9.87
H      10.02       6.81      12.18
H      15.50       8.31      19.57
H       8.37       8.56       7.45
H       3.72       7.52       8.89
H      20.23       8.89      18.14
H       4.36       7.36       6.46
H      19.62       9.00      20.57
H       7.47      11.12       3.19
H      15.91       5.50      23.66
H       8.33      11.09       0.86
H      18.21       4.01      12.88
H      15.22       5.50      26.04
H      16.41      12.17      26.23
H       8.19       4.33       1.03
H      14.93       1.38      11.62
H       9.48      15.26      13.15
H      17.38      13.28      24.61
H      18.40      12.40      23.44
H      16.79      12.85      22.97
H       7.74       3.16       2.83
H       8.14       3.89       4.41
H       5.94      12.65      13.07
H       6.47       3.82       3.90
H       7.68       4.48      13.90
H      16.42      12.18      12.28
H      16.22      14.62      11.76
H       8.05       2.02      13.62
H      16.84       2.86      12.00
C      18.67      10.86      13.09
C       7.44       9.00       3.38
C      18.21       8.55      17.49
C       5.69       8.12       9.52
C       8.40       8.94       0.72
C      15.55       7.62      26.32
C       8.25       6.46       0.75
C      15.89      10.09      26.35
C       8.11       7.72       1.40
C      15.93       8.84      25.66
C       8.15      10.15       1.37
C       5.31       5.82      13.59
C      15.54       6.44      25.57
C       7.67      10.18       2.68
C      15.93       6.42      24.24
C      18.57       8.48      16.04
C       5.30       8.21      10.97
C      16.38      11.22      25.70
C       8.04       5.30       1.50
C      18.53      12.30      12.72
C       5.58       4.36      13.39
C      17.19      14.19      12.04
C      16.37       8.81      24.30
C       7.06       2.46      13.44
C      17.29      12.85      12.33
C       6.87       3.81      13.60
C      19.66      13.12      12.76
C       4.53       3.54      13.00
C      19.59      14.49      12.46
C       4.70       2.15      12.84
C      18.32      15.04      12.12
C       5.99       1.60      13.08
C       6.09      15.36      12.58
C       7.65       7.75       2.76
C       3.59       1.28      12.51
C      16.96       1.79      12.14
C       7.41      14.85      12.79
C      15.89       0.96      11.92
C       8.48      15.67      13.00
C      17.23       9.96      22.24
C       6.99       6.60       4.89
C       9.37      10.64      15.46
C      14.52       6.07      11.53
C       8.08      10.26      15.16
C      16.82      10.00      23.66
C      15.81       6.45      11.85
C       8.84       8.58      13.73
C      15.05       8.10      13.30
C      10.19       8.88      13.97
C      13.70       7.81      13.04
C      10.46       9.95      14.88
C      13.43       6.75      12.13
C      11.28       8.16      13.35
C      12.61       8.53      13.66
C      12.85       9.60      14.58
C       7.43       6.54       3.48
C      11.04       7.09      12.43
C      11.82      10.29      15.16
C      12.07       6.41      11.84
C      16.75       7.50      22.18
C       6.96       9.10       4.77
C      18.86       8.82      19.81
C       5.09       7.66       7.22
C      19.20       8.77      18.46
C       4.74       7.74       8.56
C      16.87       8.39      17.89
C      16.86      11.21      24.38
C       7.00       8.41       9.12
C      16.53       8.44      19.24
C       7.36       8.33       7.78
C      17.53       8.66      20.19
C       6.40       7.95       6.83
C      17.38      12.51      23.83
C       7.49       3.96       3.53
C       7.65       5.30       2.85
C      16.34       7.58      23.60
N      17.17       8.70      21.59
N       6.78       7.88       5.45
N       7.83       9.23      14.30
N      16.06       7.45      12.72
O      17.67      10.10      12.90
O       6.82       5.60       5.60
O       6.73      10.18       5.33
O      16.73       6.44      21.54
O       6.31       6.59      13.84
O       5.15      10.51      13.58
O      18.75       6.20      13.49
O      17.63       8.32      15.20
O       6.22       8.52      11.79
O      19.81       8.57      15.75
O       4.09       7.96      11.26
O      17.61      10.94      21.60
