99

Zn       6.62       5.90       9.41
Zn       3.73       5.85       9.47
H       7.33       5.25      13.73
H       2.95       5.20      16.10
H       3.06       5.61      13.62
H       6.73       5.39       2.53
H       6.94       6.18       4.88
H       2.99       4.72       5.70
H       3.04       1.71       9.24
H       6.47       8.69      12.02
H       7.88       7.93      11.30
H       8.09       9.14      12.57
H       3.38       1.33      14.88
H       7.77       2.51       8.84
H       3.49      10.98      13.64
H       4.78       1.08      13.82
H       3.45       1.82      11.84
H       3.48       3.08      13.07
H       1.23       2.27      13.92
H       1.18       1.09      12.63
H       7.43       2.55      12.83
H       8.66       1.27      12.72
H       8.77       2.50      13.99
H       8.23       8.41       8.46
H       9.80       1.23       9.46
H       9.54       8.22       7.26
H       8.07       7.20       7.18
H       0.25       2.96       1.69
H       9.55       2.99       3.38
H       9.02       4.24       2.24
H       0.98       5.17       3.72
H       1.55       5.07       2.04
H       2.62       2.85       2.57
H       2.12       3.04       4.26
H       9.71      10.13      10.91
H       3.09      10.12       9.48
H       1.61       7.25       8.14
H       2.67       3.87      11.09
H       7.58       4.15      11.20
H       7.23       4.78      16.20
C       5.14       3.27       9.23
C       4.75       4.59       2.79
C       7.68       1.54       9.32
C       5.24       5.63      12.05
C       8.80       0.84       9.69
C       8.82      10.59      10.46
C       7.58      10.01      10.69
C       6.43      10.61      10.08
C       6.38       1.03       9.58
C       5.17       1.77       9.36
C       3.95       1.13       9.40
C       5.20       5.44      13.54
C       4.03      10.66       9.61
C       5.16       9.94       9.93
C       1.59       3.92      11.13
C       5.07       8.44       9.81
C       0.88       3.10      11.98
C       9.31       3.21      12.02
C       8.67       4.10      11.19
C       9.37       4.95      10.32
C       0.94       4.87      10.31
C       1.01       6.59       8.76
C       4.75       4.16       1.38
C       9.45       6.67       8.73
C       5.08       5.91       6.86
C       6.38       5.23      14.26
C       6.33       4.97      15.63
C       5.09       4.96      16.29
C       3.91       5.21      15.57
C       3.97       5.44      14.20
C       7.49       8.88      11.68
C       1.57       2.09      12.88
C       3.10       2.07      12.85
C       5.02       4.70      17.73
C       3.68       1.08      13.85
C       8.50       2.34      12.94
C       8.79       7.68       7.85
C       2.42       3.59       3.36
C       1.23       4.46       2.91
C       9.88       3.62       2.54
C       5.91       5.25       3.23
C       6.03       5.70       4.54
C       4.96       5.52       5.42
C       3.80       4.88       4.98
C       3.67       4.37       3.68
N       3.80       4.55      18.31
N       3.60       3.99       0.70
N       5.95       3.87       0.81
N       6.16       4.49      18.42
N       1.66       5.72       9.52
N       8.72       5.85       9.50
O       6.23       3.91       9.45
O       4.02       3.83       9.00
O       6.35       5.93      11.52
O       4.14       5.45      11.43
O       6.14       7.86       9.43
O       3.94       7.88       9.97
O       6.25       5.84       7.36
O       4.01       6.22       7.49
