126

Zn       5.00       7.74       7.34
Zn      16.29       7.93       6.85
H      10.25       9.21       1.77
H      10.70       8.37      12.16
H       6.24       8.20       3.30
H      14.87       8.21      10.76
H       2.07       7.73       2.48
H      19.01       8.90      11.56
H      18.47       9.46      13.94
H       2.53       7.76       0.02
H       7.96       8.93       2.61
H      13.01       8.53      11.33
H       5.33       3.45       7.86
H      16.04      12.15       7.57
H      15.69       3.79       5.60
H       5.93      11.90       5.78
H      11.79       6.62       8.75
H       9.54       9.51       5.98
H      14.28       6.85       8.52
H       7.06       9.37       6.29
H      11.43       8.74       4.98
H       9.81       5.69       8.05
H       6.76      14.79       9.19
H       5.00      14.80       8.92
H       5.91       1.96      10.11
H      18.17       1.90       9.93
H      18.77      15.07      11.50
H      18.78       1.32      12.28
H       6.51      15.19      11.72
H      14.37       0.87       8.76
H      16.14       0.79       8.81
H      14.97      13.69       9.71
H      16.72      13.72       9.89
H      15.82       0.58      11.42
H      15.65      14.35      12.06
H      14.06       0.48      11.26
H       3.04      14.86       4.13
H       2.42       1.25       3.28
H      14.62      14.72       3.75
H      13.93       1.13       2.98
H       1.43       0.26       1.15
H      14.63      14.49       1.24
H       2.12      13.83       1.92
H       4.69       0.54       3.92
H       5.46      14.00       3.42
H       7.18       0.68       3.87
H       7.97      14.16       3.41
H       6.73      14.66       1.26
H       7.51       0.46       1.39
H       5.93       1.19       1.72
C      17.51       5.25       6.98
C       3.96      10.40       6.94
C      17.24       8.13       9.63
C       3.90       7.86       4.49
C      16.95       8.52      11.04
C       4.15       7.96       3.02
C      17.68       9.19      13.24
C       3.34       7.88       0.74
C      17.98       8.88      11.93
C       3.08       7.85       2.10
C      15.63       8.50      11.48
C       5.45       8.15       2.56
C      15.29       8.81      12.81
C       5.74       8.23       1.18
C      16.35       9.13      13.72
C       4.66       8.05       0.26
C      13.92       8.75      13.29
C       7.08       8.43       0.68
C       8.17       8.77       1.55
C      12.82       8.57      12.40
C       9.45       8.92       1.09
C      11.53       8.47      12.86
C       4.47       1.61       7.16
C      16.94      14.02       7.02
C       4.51       2.99       7.30
C      16.91      12.64       7.14
C       3.48       3.77       6.77
C       3.98      11.87       6.73
C      16.47       3.17       6.04
C       5.09      12.49       6.13
C      16.46       1.79       5.84
C       5.10      13.87       5.95
C       3.43       0.97       6.44
C       4.04      14.68       6.43
C      12.21       7.13       7.89
C       9.10       8.64       6.49
C      13.59       7.27       7.78
C       7.73       8.60       6.67
C      13.37       8.46       5.84
C       7.90       6.63       7.83
C      12.00       8.34       5.82
C       9.27       6.56       7.66
C      11.38       7.68       6.90
C       9.91       7.62       7.00
C       5.89      15.44       9.00
C       5.04       1.28      10.12
C      18.93       0.59      11.48
C      15.92      15.36       8.74
C      15.83      14.36       9.88
C      15.67      15.07      11.23
C      15.79       0.59       3.89
C      14.53       0.22       3.13
C       1.53      14.75       1.79
C       6.00      14.81       3.96
C       7.35      15.07       3.31
C       6.53       0.28       1.84
N      14.17       7.96       6.78
N       7.13       7.61       7.36
N      14.00       9.27       4.76
N       7.26       5.58       8.66
O       4.57       5.77       7.42
O      16.84       9.86       7.16
O      16.44       5.89       6.70
O       5.07       9.77       6.90
O      18.45       8.22       9.24
O       2.70       8.06       4.88
O      16.26       7.74       8.91
O       4.89       7.59       5.24
O      14.69      10.22       5.11
O      13.71       8.93       3.60
O       6.50       5.96       9.55
O       7.59       4.41       8.41
O       5.49       0.86       7.72
O      15.84      14.74       7.44
O      15.42       1.29       5.09
O       6.21      14.42       5.33
