184

Zn      26.16       5.50      15.08
Zn       8.30      15.44       0.88
Zn      15.95       1.27       0.84
Zn       1.11       1.16       0.79
Zn      17.25      11.66      10.19
Zn      17.17      13.20       7.35
Zn      15.40      10.62       7.81
Zn      18.54      10.34       7.57
H      15.89      18.10      13.93
H      17.31      17.47      14.74
H      17.94      19.54      12.66
H      18.71      17.97      12.90
H      18.13      19.29      10.23
H      18.93      17.73      10.48
H      17.53      17.84       9.40
H      16.37      16.15      12.64
H      17.86      15.93      11.72
H      15.89      16.47       9.72
H      15.03      15.49      10.91
H      14.64      20.44      11.04
H       7.64       3.63      11.30
H      15.82      19.97       9.77
H      23.11       8.81      14.01
H      21.74       7.95      14.69
H      23.17       6.42      12.54
H      21.43       6.68      12.72
H      22.84       6.62      10.08
H      21.12       6.95      10.34
H      22.08       8.07       9.37
H      21.47       9.71      12.79
H      20.36       8.78      11.79
H      22.11      10.25       9.97
H      21.61      11.38      11.25
H      25.89       8.58      11.08
H      24.98       7.04      11.20
H      24.79       8.05       9.77
H      12.34       7.02      14.02
H      12.13       8.60      14.77
H      10.34       8.00      12.40
H      11.16       9.51      12.80
H      11.00       8.78      10.09
H      12.15      10.03      10.62
H      12.71       8.72       9.57
H      13.92       8.00      13.18
H      13.77       9.61      12.48
H      14.80       7.32      10.73
H      15.85       7.99      11.99
H      11.23       5.01      10.56
H      10.34       6.58      10.55
H      11.66       6.32       9.41
H      22.38      16.13       3.95
H      23.84      16.70       4.72
H      24.72      14.25       4.55
H      23.59      14.67       5.83
H      24.23      11.85       4.76
H      23.20      12.28       6.14
H      22.56      11.26       4.84
H      21.02      14.75       4.47
H      21.34      13.81       5.92
H      20.64      11.82       4.00
H      19.60      13.20       3.58
H      23.83      12.59       1.09
H      24.79      12.56       2.61
H      23.55      11.33       2.34
H      12.73      15.82       3.10
H      13.11      15.20       1.52
H      11.63      13.09       2.27
H      13.34      13.22       2.66
H      11.83      11.32       3.98
H      13.45      11.77       4.50
H      12.14      11.68       5.69
H      12.60      15.41       5.12
H      14.01      14.39       4.77
H      12.16      13.61       7.08
H      13.32      14.94       7.26
H       8.57      13.22       4.47
H       9.69      12.31       3.39
H       9.64      11.95       5.12
H      17.91       5.10       2.58
H      18.76       4.22       3.86
H      15.79       3.90       4.00
H      16.90       4.37       5.29
H      14.23       5.47       5.17
H      15.48       6.09       6.26
H      14.57       7.21       5.24
H      18.02       6.86       3.61
H      17.79       6.74       5.36
H      16.00       8.69       3.83
H      17.71       9.08       4.00
H      13.99       5.74       1.38
H      14.01       4.70       2.84
H      13.40       6.36       2.96
C      16.94      19.55      15.01
C      16.95      18.31      14.13
C      17.73      18.47      12.82
C      17.04      17.90      11.54
C      17.95      18.21      10.34
C      16.85      16.38      11.68
C      16.02      15.75      10.54
C      16.65      14.51       9.95
C      15.68      18.61      11.44
C      15.63      20.01      10.86
C      23.64       7.04      14.98
C      22.66       7.81      14.11
C      22.41       7.19      12.73
C      22.41       8.20      11.54
C      22.11       7.42      10.26
C      21.34       9.28      11.79
C      21.36      10.43      10.75
C      20.02      10.58      10.07
C      23.81       8.84      11.52
C      24.94       8.08      10.86
C      10.50       7.25      14.92
C      11.63       7.86      14.13
C      11.30       8.42      12.75
C      12.39       8.15      11.67
C      12.04       8.95      10.41
C      13.77       8.54      12.24
C      14.99       8.21      11.34
C      15.40       9.36      10.45
C      12.33       6.63      11.43
C      11.32       6.10      10.44
C      24.11      16.13       2.73
C      23.44      15.90       4.07
C      23.68      14.55       4.74
C      22.72      13.39       4.34
C      23.20      12.12       5.05
C      21.30      13.75       4.82
C      20.20      12.75       4.38
C      19.31      12.41       5.55
C      22.74      13.27       2.81
C      23.80      12.39       2.17
C      11.10      15.69       1.78
C      12.38      15.11       2.34
C      12.35      13.67       2.85
C      12.09      13.46       4.37
C      12.38      11.97       4.66
C      13.00      14.39       5.20
C      13.10      14.03       6.69
C      14.25      13.08       6.97
C      10.61      13.81       4.67
C       9.56      12.76       4.39
C      17.67       3.05       2.46
C      17.80       4.28       3.32
C      16.62       4.58       4.25
C      16.11       6.04       4.19
C      15.03       6.22       5.27
C      17.29       7.00       4.41
C      16.89       8.49       4.44
C      16.70       9.05       5.83
C      15.54       6.24       2.77
C      14.15       5.72       2.46
O      17.48       0.24       0.17
O      16.80      19.36      16.26
O      17.03      20.68      14.42
O      17.09      14.59       8.76
O      16.71      13.48      10.71
O      14.66      18.07      11.87
O      23.52       7.20      16.24
O      24.53       6.35      14.39
O      19.88       9.99       8.94
O      19.12      11.25      10.69
O      24.02       9.92      12.06
O      10.55       7.42      16.18
O       9.63       6.55      14.28
O      15.03       9.31       9.22
O      16.08      10.29      10.99
O      13.05       5.86      12.06
O      23.72      17.16       2.10
O      25.01      15.30       2.36
O      19.43      11.24       6.04
O      18.54      13.33       5.98
O      21.93      13.88       2.13
O      11.21      16.90       1.40
O      10.06      14.96       1.70
O      14.01      12.02       7.64
O      15.39      13.42       6.51
O      10.30      14.91       5.11
O      18.75       2.41       2.23
O      16.52       2.79       1.98
O      15.63       9.71       6.07
O      17.64       8.84       6.67
O      16.22       6.76       1.89
O      17.12      11.48       8.25
