95

Zn       6.71       8.38      10.98
Zn       6.74      10.54       8.56
Zn       9.01       8.43       8.75
Zn       8.90      10.73      11.00
H       6.97       7.63      14.98
H      15.57       8.68       8.05
H       8.99       7.34       4.69
H       8.45       8.01       0.03
H       7.69      11.67      17.74
H       8.81      11.06       0.06
H       7.41      14.53       7.49
H       7.56      17.46      11.48
H       5.67      19.04      10.24
H       2.82       9.76       7.37
H      17.64       9.16       8.09
H       9.13       7.22       2.21
H      -0.02       8.63      11.29
H      13.03      10.56      11.89
H      -1.92       9.74      11.11
H       6.61       7.50      17.42
H       8.92       4.45       7.94
H       7.04       4.13      11.79
H       9.10       1.97       7.82
H       6.90      11.08       4.38
H      13.10       8.76       7.99
H       2.46       8.61      11.50
H      15.52      10.44      11.99
C       7.65      13.10       9.70
C       6.84       9.64      19.20
C       8.44       9.02       0.43
C       7.94       5.93       9.94
C       7.97       9.24       4.69
C       7.99       4.44       9.88
C       8.57       3.82       8.76
C       8.68       2.44       8.70
C       8.26       1.63       9.77
C       7.65       2.27      10.87
C       7.50       3.65      10.93
C       7.12       9.59      17.77
C       7.54      16.82      10.60
C       7.60      15.44      10.76
C       7.47      15.18       8.36
C       4.27       9.26       9.58
C       7.44      16.56       8.20
C       7.48      17.41       9.33
C       8.42       0.18       9.75
C       7.45      18.89       9.23
C       7.57      14.60       9.63
C      12.91       9.67       9.93
C       7.55      10.77      17.14
C      13.64       9.14       8.85
C      15.03       9.10       8.89
C      15.73       9.57      10.02
C      14.99      10.08      11.10
C      11.43       9.68       9.90
C      13.60      10.15      11.06
C       0.61       8.90      10.43
C       1.99       8.87      10.55
C       2.19       9.51       8.23
C       0.81       9.50       8.11
C       7.78      10.83      15.77
C      -0.03       9.22       9.21
C      17.19       9.52      10.12
C      -1.48       9.28       9.10
C       2.79       9.20       9.45
C       7.93       9.35       6.17
C       7.69       9.65      13.47
C       7.56       9.69      14.96
C       7.15       8.51      15.61
C       6.94       8.44      16.97
C       7.52      10.19       2.51
C       7.41      10.25       3.90
C       8.58       8.13       4.07
C       8.65       8.08       2.69
C       8.18       9.12       1.86
Cl       7.62      14.81      12.36
Cl      10.85       0.12       8.51
Cl       7.09       1.33      12.22
Cl       7.29      17.22       6.61
Cl       0.12       9.87       6.56
Cl       6.74      11.47       1.62
Cl       8.27      12.36      15.13
O       7.83       9.54       9.85
O       7.27      10.32       6.68
O       8.48      10.48      12.91
O       8.58       8.47       6.83
O       6.98       8.77      12.89
O       4.80       8.70      10.60
O      10.82      10.36      10.79
O       6.86      12.47       8.91
O       8.74       6.54       9.17
O       8.50      12.60      10.50
O       7.10       6.46      10.75
O       4.90       9.88       8.65
O      10.87       8.99       8.97
