190

Zn      -0.99      10.36       1.28
Zn      16.66       9.86       1.28
Zn       5.42      18.62       1.27
Zn      10.26       1.60       1.26
Zn      10.67      -1.55      15.45
Zn      10.13       1.55      15.45
Zn      -0.99      10.22      15.46
Zn      -4.14      10.00      15.46
H       0.39      14.41       1.92
H      15.28       5.81       1.92
H       4.48      -1.46       4.45
H       3.99       0.49       2.96
H       4.66       0.39       0.56
H      -7.21       8.52      16.14
H      15.19       3.46       3.54
H      16.32       1.46       4.45
H      16.81      -0.49       2.97
H      11.01      19.83       0.57
H       7.21      -8.52      16.15
H      -1.57      13.95       2.65
H       1.92      15.96       1.94
H      -4.02      14.30       2.77
H      15.68      15.92       1.22
H     -11.57       7.06      16.07
H      -9.15       6.72      15.96
H      17.24       6.28       2.66
H      -1.12       5.93       2.78
H      -0.01       4.31       1.23
H      11.58      -7.06      16.08
H       9.15      -6.72      15.96
H       0.48      16.77       3.54
H      13.75       4.26       1.94
H      -4.93       3.83      13.73
H      -4.70       2.62      11.61
H      -6.72       1.98      10.29
H      11.81       2.60      11.15
H      -9.21       3.81      13.29
H       4.94      -3.83      13.73
H       4.71      -2.62      11.61
H       6.74      -1.98      10.29
H       9.00      -2.60      11.15
H       9.22      -3.81      13.29
H      -3.90       6.32      13.93
H      -3.36       7.05      11.65
H      -5.18       7.68      10.06
H      -7.56       7.59      10.82
H      -8.10       6.86      13.12
H       3.91      -6.32      13.92
H       3.37      -7.05      11.65
H       0.06      12.53      10.06
H       2.44      12.63      10.83
H       8.10      -6.86      13.12
H       2.06      13.29       1.26
H      13.61       6.93       1.25
H       3.48      14.99       1.12
H      12.19       5.23       1.12
H      -8.38       4.95      14.93
H       8.38      -4.95      14.94
H      -7.29       6.78      15.33
H       7.29      -6.77      15.33
C       8.16      -2.76      16.45
C      -8.16       2.76      16.45
C       9.24      17.10       0.22
C      14.25      13.18       0.21
C       1.42       7.04       0.22
C       6.43       3.12       0.22
C      13.28      13.93       0.21
C       2.40       6.29       0.21
C       5.47       3.88       0.21
C      10.20      16.35       0.21
C       4.71      -7.26      16.46
C      -4.70       7.26      16.46
C      12.22      14.75       0.21
C       3.45       5.47       0.21
C       4.42       4.71       0.21
C      11.25      15.52       0.21
C       0.28       7.91       0.19
C      15.39      12.31       0.19
C       8.11      17.99       0.19
C       7.56       2.23       0.19
C      10.40      -0.00      12.98
C      -2.56      10.11      13.00
C      -2.57      10.11       3.76
C      10.40       0.00       3.74
C      -2.57      10.11       5.20
C      -2.56      10.11      11.56
C      10.40       0.00       5.17
C      -2.57      10.11       6.42
C      10.40       0.00       6.40
C      -2.57      10.11       7.76
C      10.40       0.00       7.74
C      10.40      -0.00      11.54
C      -2.56      10.11       9.00
C      10.40      -0.00       8.97
C      -2.56      10.11      10.34
C      10.40      -0.00      10.31
C      -1.25      15.34       1.04
C      -2.05      14.66       1.97
C      -3.43      14.85       2.04
C      -4.05      15.76       1.17
C      -3.27      16.46       0.25
C      -1.89      16.25       0.18
C      16.93       4.88       1.04
C      17.72       5.57       1.97
C      -1.71       5.37       2.05
C      -1.09       4.47       1.18
C      18.94       3.77       0.26
C      17.56       3.97       0.18
C       0.63      17.53       1.52
C       0.26      17.61       2.88
C       4.76      -1.49       3.39
C       4.48      -0.40       2.56
C       4.85      -0.45       1.22
C       0.35      18.63       0.70
C      15.04       2.70       1.52
C      15.41       2.61       2.88
C      16.04       1.49       3.40
C      16.32       0.40       2.57
C      15.95       0.45       1.22
C      15.32       1.59       0.70
C       0.23      15.02       1.01
C      15.44       5.21       1.01
C       1.26      16.20       1.10
C      14.41       4.02       1.10
C      -7.10       3.88      13.70
C      -5.83       3.54      13.19
C      -5.70       2.87      11.98
C      -6.83       2.51      11.24
C      -8.10       2.85      11.72
C      -8.22       3.53      12.93
C       7.10      -3.88      13.70
C       5.84      -3.54      13.19
C       5.71      -2.87      11.98
C       6.84      -2.51      11.24
C       8.11      -2.86      11.72
C       8.23      -3.54      12.93
C      -6.04       6.52      13.70
C      -4.72       6.60      13.26
C      -4.41       7.01      11.96
C      -5.42       7.36      11.07
C      -6.75       7.31      11.50
C      -7.05       6.90      12.80
C       6.05      -6.52      13.70
C       4.73      -6.60      13.26
C       4.42      -7.01      11.96
C       0.30      12.86      11.07
C       1.63      12.91      11.50
C       7.06      -6.90      12.80
C       2.09      13.62       0.21
C      13.58       6.60       0.21
C       3.04      14.85       0.13
C      12.64       5.38       0.13
C      -7.32       4.68      14.97
C       7.32      -4.68      14.97
C      -6.52       6.04      15.07
C       6.52      -6.04      15.07
C      -7.18       3.93      16.32
C       7.18      -3.93      16.32
C      -5.61       6.04      16.33
C       5.61      -6.03      16.33
I      -5.09       1.60      15.86
I       5.09      -1.60      15.85
I      -2.89       4.49      15.57
I       2.89      -4.49      15.57
O      -2.57      10.11       0.13
O      -0.13      12.08       0.94
O      -4.90       8.22      15.66
O       9.13      -2.73      15.64
O      -9.13       2.73      15.64
O       4.91      -8.22      15.66
O      11.70       2.88       0.92
O       3.98      17.34       0.93
O      15.80       8.14       0.94
O      -8.43      -2.46      15.80
O       8.43       2.46      15.80
O       0.37       8.87      15.87
O      -0.36      -8.86      15.87
O      10.40      -0.00       0.14
O      10.79      -1.08      13.54
O      10.01       1.08      13.54
O      -1.44       9.90      13.56
O      -3.69      10.32      13.56
O      -3.68       9.84       3.20
O      -1.45      10.38       3.20
O      10.31       1.14       3.18
O      10.50      -1.14       3.18
O       0.27       8.85       1.05
O      15.40      11.37       1.05
O       7.14      17.70       0.96
O       8.53       2.52       0.96
