98

Cu       8.39       4.98      12.37
Cu       6.50       6.21       4.12
H       6.30       5.86      14.27
H       3.79       5.96      14.34
H       3.77       4.18      10.40
H       6.25       4.10      10.50
H       7.58       2.86      14.27
H       7.57       0.36      14.37
H       9.43       9.58      14.27
H       9.44       7.11      14.16
H      10.48       5.86      10.47
H      12.99       5.96      10.40
H      13.00       4.18      14.34
H      10.53       4.10      14.24
H       9.20       2.86      10.47
H       9.21       0.36      10.37
H       7.35       9.58      10.46
H       7.34       7.11      10.57
H       8.58       5.47       2.17
H      11.08       5.30       2.09
H      11.13       6.77       6.17
H       8.67       6.87       6.08
H       6.04       8.35       2.09
H       6.04      10.81       2.01
H       5.21       1.63       2.38
H       5.26       4.09       2.45
H       4.43       5.47       6.08
H       1.92       5.30       6.15
H       1.88       6.77       2.08
H       4.34       6.87       2.17
H       6.97       8.35       6.15
H       6.97      10.81       6.24
H       7.80       1.63       5.87
H       7.75       4.09       5.80
C       5.69       5.50      13.44
C       4.30       5.54      13.47
C       3.57       5.07      12.37
C       4.28       4.56      11.28
C       5.67       4.52      11.33
C       7.94       2.26      13.44
C       7.94       0.87      13.48
C       8.96       9.08      13.43
C       8.97       7.69      13.38
C      11.09       5.50      11.30
C      12.48       5.54      11.27
C      13.21       5.07      12.37
C      12.49       4.56      13.46
C      11.11       4.52      13.41
C       8.84       2.26      11.30
C       8.84       0.87      11.26
C       7.82       9.08      11.31
C       7.81       7.69      11.36
C       9.20       5.74       3.02
C      10.59       5.67       2.99
C      11.33       6.04       4.12
C      10.62       6.47       5.25
C       9.23       6.53       5.21
C       6.24       8.93       2.99
C       6.24      10.32       2.96
C       5.79       2.12       3.16
C       5.81       3.51       3.19
C       3.81       5.74       5.22
C       2.42       5.67       5.25
C       1.68       6.04       4.12
C       2.39       6.47       2.99
C       3.78       6.53       3.04
C       6.76       8.93       5.25
C       6.77      10.32       5.29
C       7.21       2.12       5.09
C       7.20       3.51       5.06
C       8.39       0.14      12.37
C       8.39       9.80      12.37
C       6.50      11.05       4.12
C       6.50       1.39       4.12
S       8.71       4.65      16.18
S       8.07       4.65       8.55
S       6.20       6.37       0.26
S       6.81       6.37       7.98
N       6.36       4.99      12.39
N      10.42       4.99      12.35
N       8.54       6.18       4.11
N       4.47       6.18       4.13
N       8.39       2.94      12.37
N       8.39       7.01      12.37
N       6.50       8.24       4.12
N       6.50       4.19       4.12
O       8.25       5.03      14.83
O       3.86       4.61       0.69
O       9.60       3.48      16.18
O       8.53       5.03       9.91
O       9.15       4.61       7.56
O       7.18       3.48       8.55
O       6.61       6.05       1.65
O      11.08       6.39      15.80
O       5.30       7.53       0.19
O       6.40       6.05       6.60
O       5.70       6.39       8.94
O       7.71       7.53       8.05
