180

Cu      10.87       8.86      11.21
Cu       9.03      10.53       9.21
Cu       8.07       9.87      12.15
Cu      -0.34      21.81      17.92
Cu       0.73      24.45      19.24
Cu       2.16      23.28      16.63
Cu      15.17       2.44      25.00
Cu      16.26      -0.28      23.79
Cu      17.76       1.08      26.23
Cu      23.20      18.38       4.07
Cu      22.43      15.45       4.96
Cu      21.61      16.48       2.09
H      13.60       8.91       9.60
H      10.90      10.54       6.63
H       7.47       7.82      14.51
H      11.44       6.56      13.33
H       6.62      12.39       8.23
H       5.69      11.95      12.44
H      24.32      20.94      20.05
H      -1.38      24.81      21.62
H       2.77      21.31      14.18
H      -0.87      19.56      15.75
H       4.83      -0.40      19.93
H       4.53      25.36      16.29
H      13.03       3.22      22.77
H      14.18      -0.74      21.43
H      18.40       3.12      28.58
H      14.64       4.72      27.16
H      16.07      24.51      23.21
H      20.24      -0.88      26.56
H      -1.56      19.13       6.34
H      24.38      15.04       7.43
H      21.08      16.48      28.32
H      22.82      21.17       2.55
H      20.46      12.96       5.24
H      19.81      14.05       1.10
H      22.92      19.62      24.76
H      20.01      21.48      27.33
H      21.08      23.34      23.60
H      15.94      11.05       5.52
H      17.71       9.60       1.87
H      13.81       8.22       3.07
H       0.30      18.07      10.89
H       3.88      16.49      12.68
H       2.02      14.41       9.40
H       9.78       0.89      19.29
H       8.56       2.97      15.73
H      11.88       4.44      18.04
H      23.23      23.66      22.85
H      23.42      20.60      22.54
H      14.81       9.81       7.13
H      12.67       9.35       4.98
H      -0.34      18.21       8.73
H      -0.12      15.15       8.54
H      11.88       0.43      20.12
H      12.38       3.46      20.21
H      21.64      22.35       0.17
H      22.00      18.38      26.69
H       8.31       5.31      15.54
H      11.38       5.38      15.75
H      17.78       7.41       1.11
H      14.71       7.57       0.88
H      -0.00      18.59      13.18
H       3.06      18.75      13.30
H      18.70      23.56      23.72
H      19.20      23.85      26.73
H       4.18      13.66       9.13
H       4.68      14.31      12.09
H       7.43       0.64      19.33
H       7.67       0.66      16.27
H      18.52      11.71       1.89
H      18.17      11.75       4.94
C      12.77       9.31       9.03
C      12.72       9.72       7.68
C      11.38      10.11       7.50
C       8.45       7.69      14.07
C       9.43       6.73      14.35
C      10.49       7.06      13.48
C       6.56      12.12       9.29
C       5.68      12.59      10.28
C       6.11      11.92      11.44
C      24.78      21.90      20.28
C      24.48      22.81      21.30
C      -1.51      23.88      21.06
C       1.89      21.03      14.75
C       0.97      20.00      14.51
C       0.02      20.15      15.54
C       5.11      -0.93      19.02
C       6.19      -0.69      18.15
C       3.90      25.57      17.15
C      13.48       2.25      22.60
C      13.20       1.29      21.61
C      14.05       0.22      21.93
C      17.48       3.35      28.06
C      16.53       4.35      28.34
C      15.55       4.16      27.35
C      16.40      25.13      24.04
C      17.54      24.99      24.85
C      19.56      -1.18      25.77
C      24.92      18.12       6.44
C      25.28      17.11       7.35
C      24.47      16.02       6.98
C      21.72      18.90       0.45
C      21.99      20.26       0.65
C      22.48      20.31       1.97
C      20.43      13.41       4.25
C      19.72      13.03       3.10
C      20.12      13.96       2.13
C      22.13      21.50      24.06
C      22.22      20.43      24.96
C      21.50      20.43      26.17
C      20.62      21.50      26.43
C      20.42      22.52      25.49
C      21.20      22.53      24.32
C      14.76       9.60       4.42
C      15.90      10.39       4.65
C      16.95      10.43       3.71
C      16.89       9.59       2.59
C      15.77       8.78       2.35
C      14.69       8.84       3.25
C       1.07      16.25      10.00
C       1.09      17.31      10.92
C       2.08      17.40      11.90
C       3.09      16.42      11.93
C       3.09      15.34      11.03
C       2.06      15.26      10.09
C      10.95       2.64      18.80
C       9.91       1.72      18.60
C       9.03       1.83      17.51
C       9.21       2.89      16.60
C      10.22       3.85      16.79
C      11.08       3.71      17.89
C      23.53      22.71      22.39
C      23.04      21.56      22.92
C      13.80       9.71       6.72
C      13.66       9.56       5.39
C      -0.60      17.20       8.40
C       0.06      16.15       8.95
C      12.27       1.37      20.50
C      11.90       2.53      19.90
C      21.61      19.45      28.47
C      21.70      19.34      27.12
C       9.33       5.63      15.29
C      10.36       5.00      15.89
C      16.79       7.22       0.68
C      15.72       7.84       1.23
C       0.97      18.98      13.48
C       2.08      18.45      12.92
C      18.58      23.99      24.72
C      19.37      23.52      25.70
C       4.61      13.56      10.13
C       4.17      14.35      11.13
C       7.23       0.31      18.31
C       7.94       0.88      17.30
C      18.74      11.98       2.92
C      18.02      11.40       3.91
N      10.69       9.95       8.65
N      11.55       9.44       9.60
N      10.15       8.13      12.74
N       8.89       8.53      13.11
N       7.16      11.14      11.16
N       7.45      11.26       9.82
N      -0.74      23.62      19.99
N      -1.11      22.39      19.49
N       0.37      21.18      16.34
N       1.52      21.74      15.84
N       2.82      24.81      17.41
N       2.24      25.28      18.57
N      14.79       0.52      23.02
N      14.43       1.78      23.44
N      15.89       3.13      26.55
N      17.09       2.62      27.00
N      18.44      -0.48      25.52
N      17.80      -1.06      24.45
N      23.69      16.36       5.93
N      23.98      17.67       5.58
N      22.51      19.07       2.50
N      22.03      18.20       1.56
N      21.00      14.84       2.66
N      21.19      14.49       3.98
