171

Zn       9.67       8.89      15.33
Zn       6.88       8.83      15.34
Zn       6.91       8.84      28.08
Zn       9.69       8.76      28.03
H       4.70       9.99      17.01
H       2.18      10.00      17.02
H       4.81       7.45      13.73
H      11.76      10.47      16.77
H      11.87       7.40      13.97
H      14.39       7.35      14.01
H      10.35      13.20      15.41
H      10.25      15.70      15.42
H       6.06      13.04      15.17
H      10.57       4.62      15.28
H       6.28       4.58      15.57
H       6.31       2.08      15.51
H      10.39       8.74      23.46
H       6.24       9.07       1.81
H       6.33       9.07       4.31
H      10.53       8.89       1.66
H       6.03       8.72      11.12
H      10.32       8.97      11.03
H      10.26       9.04       8.53
H      11.90      10.20      26.64
H      14.42      10.23      26.69
H      11.75       7.31      29.61
H       4.82      10.37      26.63
H       4.72       7.34      29.46
H       2.20       7.33      29.48
H       6.23      13.15      27.99
H       6.33      15.65      28.02
H      10.52      12.98      28.11
H       6.02       4.61      28.13
H      10.32       4.47      28.01
H      10.23       1.96      28.04
H       5.51      10.42      20.91
C       8.26      11.46      15.27
C       8.24       8.90      17.92
C       8.41       6.26      15.41
C       8.21       8.79      12.73
C       8.31      11.41      28.05
C       8.32       8.81      25.44
C       8.22       6.19      28.06
C       8.33       8.96       0.08
C       4.12       9.42      16.28
C       2.74       9.41      16.29
C       2.03       8.64      15.34
C       2.81       7.91      14.42
C       4.20       7.99      14.45
C       0.62       8.68      15.36
C      15.94       8.86      15.51
C      14.54       8.91      15.50
C      13.75       9.79      16.28
C      12.37       9.78      16.18
C      12.45       8.07      14.61
C      13.83       8.04      14.64
C       8.22      12.96      15.29
C       9.40      13.72      15.37
C       9.34      15.10      15.38
C       8.10      15.79      15.35
C       6.93      15.00      15.28
C       6.99      13.61      15.24
C       8.14      17.20      15.37
C       8.38       0.52      15.38
C       8.45       1.93      15.41
C       9.65       2.68      15.34
C       9.63       4.07      15.34
C       8.42       4.76      15.42
C       7.22       4.03      15.50
C       7.24       2.65      15.47
C       7.11       8.81      20.26
C       9.36       8.76      23.10
C       8.21       8.80      19.40
C       8.29       8.79      23.97
C       8.94       8.77      21.76
C       7.54       8.80      21.61
C       8.37       8.98       1.58
C       7.19       9.03       2.33
C       7.24       9.04       3.71
C       8.48       9.02       4.41
C       9.65       8.98       3.62
C       9.60       8.94       2.23
C       8.43       9.02       5.81
C       8.16       9.00       7.00
C       8.11       8.97       8.41
C       6.92       8.89       9.18
C       6.96       8.80      10.57
C       8.18       8.84      11.24
C       9.37       8.94      10.50
C       9.34       8.99       9.11
C      12.47       9.56      27.31
C      13.86       9.57      27.34
C      14.55       8.70      28.21
C      13.76       7.88      29.04
C      12.37       7.93      28.97
C      15.96       8.72      28.19
C       0.64       8.87      28.02
C       2.05       8.89      27.98
C       2.83       9.74      27.17
C       4.21       9.71      27.24
C       4.14       8.02      28.83
C       2.75       8.01      28.83
C       8.36      12.91      28.05
C       7.18      13.67      28.02
C       7.24      15.05      28.03
C       8.48      15.73      28.05
C       9.66      14.95      28.07
C       9.60      13.56      28.08
C       8.44      17.14      28.06
C       8.12       0.46      28.07
C       8.08       1.87      28.07
C       6.90       2.65      28.10
C       6.95       4.04      28.10
C       8.18       4.69      28.07
C       9.36       3.94      28.04
C       9.32       2.56      28.05
C       5.67       8.82      19.84
S       9.73       8.75      20.23
S       6.75       8.79      23.15
N       4.84       8.73      15.37
N      11.73       8.93      15.37
N      11.74       8.75      28.10
N       4.85       8.85      28.05
N       2.20       7.03      13.40
N      14.36      10.74      17.23
N       5.59      15.62      15.27
N      10.97       2.03      15.27
N      10.99       8.97       4.25
N       5.59       8.88       8.54
N      14.35       6.93      30.00
N       2.21      10.70      26.24
N      10.99      15.57      28.08
N       5.57       2.02      28.12
O       9.39      10.92      15.51
O       7.18      10.85      15.03
O       7.15       9.21      17.34
O       9.37       8.69      17.37
O       7.29       6.83      15.64
O       9.51       6.85      15.17
O       9.33       9.02      13.29
O       7.12       8.53      13.32
O       7.16      10.87      27.94
O       9.42      10.80      28.15
O       9.47       8.90      25.99
O       7.19       8.73      26.04
O       9.36       6.73      27.90
O       7.12       6.80      28.22
O       7.21       8.95      30.12
O       9.45       8.61      30.07
O       0.99       6.81      13.49
O       2.95       6.58      12.53
O      15.52      10.50      17.61
O      13.67      11.71      17.57
O       5.52      16.84      15.51
O       4.62      14.89      15.02
O      11.02       0.81      15.50
O      11.95       2.74      14.99
O      11.06       9.23       5.46
O      11.96       8.71       3.52
O       5.53       9.19       7.34
O       4.62       8.58       9.24
O      15.56       6.69      29.89
O      13.58       6.62       0.26
O       1.04      10.50      25.90
O       2.92      11.64      25.85
O      11.07      16.80      27.92
O      11.97      14.82      28.24
O       5.49       0.80      27.90
O       4.59       2.75      28.37
O       4.93       9.83      20.39
O       5.14       8.00      19.12
