176

Zn       2.09       3.00       8.96
Zn       4.55       7.23       9.42
Zn       2.10       6.09       7.55
Zn       4.49       4.17      11.12
H       1.88       1.32       6.34
H       7.36       6.89       8.14
H       7.02      -3.03       9.82
H      -0.50      13.68       9.25
H       1.18      14.00       9.66
H       8.96      -2.13       6.07
H       9.77      -1.70       7.58
H       6.59      -2.73       6.04
H      -0.17      14.25       5.58
H       2.64      15.04       7.90
H       3.07       6.98       4.80
H      -0.26       6.99       9.58
H      -8.23       5.66      11.84
H      12.29       6.94       8.31
H      -5.63       6.61       8.33
H      12.45       3.27       9.13
H      12.53       4.39       7.77
H      12.14       3.96      11.39
H       6.24       1.13      11.18
H      -5.31       4.69       8.05
H       2.54       9.44       3.91
H      -1.73       3.10      13.29
H       5.03       5.61      14.25
H       6.81       9.78       4.37
H       0.29       5.02      17.39
H       6.87      11.24       2.35
H       1.37       5.41      15.20
H       4.05       6.83      16.19
H       9.87      16.74       0.21
H      -1.11      -0.94       3.39
H       0.22       0.24       5.13
H       4.14      10.34      13.68
H      -0.79       3.99       3.26
H       3.85       9.02      11.87
H       4.19       1.23       7.36
H       7.52       3.27      10.51
H       0.47       5.12       4.82
H      -0.17       2.54      11.55
H      -6.22       5.99      13.44
H      -4.79       6.51      12.52
H      -6.41       7.20      12.17
H      -4.20       7.93       9.77
H      -5.59       8.84       9.13
H      -5.57       8.35      10.82
H      -1.49       2.87       9.04
H      -5.80       2.95      11.57
H      -4.51       3.92      12.30
H      -6.07       3.76      13.13
H       2.07      10.42       0.80
H       1.37      10.72       2.42
H       2.16      12.03       1.48
H      -3.67       2.46      14.50
H      -2.99       1.49      15.83
H      -3.91       2.95      16.20
H       7.29       9.32       6.70
H       2.51       5.50      13.23
H       6.07      10.61       6.79
H       6.38       9.57       8.20
H      18.30       3.15       0.34
H      16.78       2.68       1.09
H      -2.48       4.12       1.70
H      11.90      -6.46      14.53
H      10.90      -6.31      16.00
H      12.66      -6.25      16.14
H       0.31       8.84       7.00
H      -1.20      13.47       6.79
H       8.74      -2.60       9.76
C       1.67       2.36       6.13
C      -0.96       3.82       9.09
C       2.00       4.74      12.65
C       7.16       6.02       8.76
C       1.14       8.99       7.69
C       0.77       4.12      12.88
C       1.74      10.19       8.10
C      -1.44       5.07       9.55
C       4.34       7.66      13.59
C      -1.12      15.65       6.95
C       7.94      -3.14       9.23
C       8.06       5.08       9.29
C       0.36      14.32       9.02
C       1.44      11.51       7.74
C       7.74      -2.45       7.86
C       3.73       7.43       5.54
C      -0.48      14.28       6.63
C       0.75      14.05       7.53
C       1.82      15.09       7.17
C       9.11      -2.45       7.11
C       1.20      12.67       7.49
C       7.18      -1.13       8.10
C       4.58       8.55       5.40
C       6.50      -0.21       8.52
C      -7.65       4.99      11.19
C      -7.49       6.70       9.32
C      -5.94       6.72       9.38
C       5.57       1.31      10.34
C      -2.77       5.34       9.92
C      12.10       5.31       9.72
C      -6.13       5.13      11.46
C      -5.41       5.40      10.08
C      -5.79       4.35       8.98
C       5.63       0.77       9.03
C      12.82       4.25       8.82
C      -3.96       5.42      10.15
C      10.67       5.21       9.50
C       9.47       5.12       9.32
C      -0.05       4.19      14.09
C       5.24       8.63       6.64
C       0.46       4.81      15.25
C      -0.14       4.61      16.48
C      -1.29       3.79      16.59
C      -1.92       3.32      15.42
C       0.64       3.23      11.79
C      -1.28       3.52      14.19
C       3.51      10.61       2.40
C       3.50       9.80       3.54
C       4.77      11.10       1.95
C       4.67       9.45       4.25
C       5.89      10.02       3.84
C       4.52       1.36       8.39
C       5.93      10.83       2.72
C      -0.11       2.20       4.27
C      -0.84       2.90       3.28
C       2.73       9.74       9.00
C      -1.60       2.26       2.30
C      18.51       0.84       2.31
C      -1.02       0.15       3.38
C      -0.27       0.81       4.34
C       3.94       8.73      17.19
C       4.04       7.92      16.07
C       3.94      10.13      17.06
C       7.24       4.16       9.97
C       4.14       8.48      14.78
C       4.06       9.88      14.66
C      -0.34       5.93       9.38
C       3.95      10.72      15.77
C       0.94       4.29       5.35
C       0.77       2.91       5.19
C      -5.87       6.29      12.44
C      -5.29       8.04       9.81
C      -5.59       3.86      12.14
C       2.20      10.96       1.75
C      -3.19       2.52      15.49
C       6.30       9.58       7.11
C      17.77       3.10       1.31
C       4.78       6.33      13.47
C      11.83      -6.73      15.59
C       4.18       8.07      12.26
Br       3.99      10.82       9.88
Br       5.00      -3.52       7.76
Br       2.72      14.66       5.46
Br      -8.41       8.12      10.38
Br      -4.98       2.54       9.10
N       2.30       3.34       6.81
N       5.07      11.76       0.76
N      18.07      -0.02       1.29
N       5.90       5.70       9.12
N      17.96       0.52       0.14
N       3.87       6.90       6.77
N       4.51       2.13      10.47
N       4.78       7.66       7.45
N       3.87       2.15       9.25
N       5.96       4.56       9.86
N       1.85       4.54       6.31
N       2.72       8.40       9.13
N       1.72       3.30      11.00
N       0.70       5.25       8.86
N       4.88       5.97      12.17
N       4.50       7.07      11.42
N       0.30       3.94       8.68
N       2.57       4.24      11.53
N       1.73       7.94       8.30
N      -1.76       3.29      17.82
