100

Co       0.14       0.14      12.23
Co      13.19      13.19       5.24
Co       0.14      13.19       1.75
Co      13.19       0.14       8.74
H       0.34      10.35      12.63
H      12.77       8.03       8.41
H      12.77       5.58       8.41
H      12.69       3.26       8.42
H      13.00       2.99       5.64
H       0.57       5.31       1.41
H       0.57       7.75       1.42
H       0.64      10.08       1.43
H      10.35      13.00       2.14
H       8.03       0.57      11.90
H       5.58       0.57      11.90
H       3.26       0.64      11.91
H       2.99       0.34       9.13
H       5.31      12.77       4.91
H       7.75      12.77       4.91
H      10.08      12.69       4.92
H       0.34       2.99       1.35
H      12.77       5.31       5.58
H      12.77       7.75       5.58
H      12.69      10.08       5.57
H      13.00      10.35       8.35
H       0.57       8.03      12.57
H       0.57       5.58      12.57
H       0.64       3.26      12.56
H      10.35       0.34      11.84
H       8.03      12.77       2.08
H       5.58      12.77       2.08
H       3.26      12.69       2.07
H       2.99      13.00       4.85
H       5.31       0.57       9.07
H       7.75       0.57       9.07
H      10.08       0.64       9.06
C       0.18      10.57      11.58
C      13.02       7.50       9.33
C      13.02       6.11       9.33
C      13.01       3.04       9.43
C      13.15       2.77       4.58
C       0.31       5.84       2.34
C       0.32       7.23       2.34
C       0.33      10.29       2.44
C      10.57      13.15       1.09
C       7.50       0.31      12.82
C       6.11       0.32      12.82
C       3.04       0.33      12.93
C       2.77       0.18       8.08
C       5.84      13.02       5.83
C       7.23      13.02       5.83
C      10.29      13.01       5.94
C       0.18       2.77       2.41
C      13.02       5.84       4.65
C      13.02       7.23       4.65
C      13.01      10.29       4.55
C      13.15      10.57       9.40
C       0.31       7.50      11.65
C       0.32       6.11      11.65
C       0.33       3.04      11.54
C      10.57       0.18      12.89
C       7.50      13.02       1.16
C       6.11      13.02       1.16
C       3.04      13.01       1.05
C       2.77      13.15       5.90
C       5.84       0.31       8.15
C       7.23       0.32       8.15
C      10.29       0.33       8.04
C       0.00       9.69      10.49
C       0.00       8.23      10.49
C      13.34       5.38      10.49
C      13.34       3.92      10.49
C       0.00       3.64       3.50
C       0.00       5.10       3.50
C      13.34       7.96       3.50
C      13.34       9.42       3.50
C       9.69      -0.00      13.98
C       8.23       0.00       0.00
C       5.38      13.34       0.00
C       3.92      13.34       0.00
C       3.64       0.00       6.99
C       5.10       0.00       6.99
C       7.96       0.00       6.99
C       9.42       0.00       6.99
N       0.12      11.85      11.16
N      13.13       1.76       9.84
N      13.22       1.49       4.17
N       0.21      11.58       2.84
N      11.85      13.22       0.67
N       1.76       0.21      13.33
N       1.49       0.12       7.66
N      11.58      13.13       6.34
N       0.12       1.49       2.82
N      13.13      11.58       4.15
N      13.22      11.85       9.81
N       0.21       1.76      11.14
N      11.85       0.12      13.31
N       1.76      13.13       0.65
N       1.49      13.22       6.32
N      11.58       0.21       7.64
