116

Zn      -1.66       9.01       0.24
Zn      10.88       5.12       0.29
Zn       4.87       1.82      10.99
Zn      -1.67       6.27       2.06
H      -3.19      10.72       2.53
H       4.51      -1.35       7.10
H       8.37       5.92       2.22
H       4.50      -2.73       8.19
H       0.82       8.60       6.51
H       6.71      -4.07       8.48
H       1.81      11.65       4.40
H       5.99      -1.50       4.50
H       6.74      -0.32       6.35
H       8.19      -1.31       6.51
H       8.23      -3.33       7.97
H       6.54      -2.83      10.55
H      -5.77       6.03       8.38
H       1.57       1.71      10.16
H      -4.80       7.02       6.53
H       7.73       6.25       4.86
H      -0.80       0.57      10.68
H      -3.10      -1.87      12.24
H      -2.93       0.51      10.30
H      11.95      -0.41       1.53
H      -0.37       0.56       2.72
H       7.16      11.29       1.20
H       5.03       3.93       8.35
H      -0.22       7.43       4.78
H      -5.41      12.30       2.80
H       1.94      -2.06      12.25
H      -0.09      11.04       2.41
H      -3.33       7.38       4.64
H       8.38       9.33       0.25
H      -5.22       2.10      10.48
H      -5.29       5.17      10.37
H      -6.27       6.63      10.60
H      -6.19       5.39      11.88
H      -0.41       3.31       3.20
H       3.27       8.68       6.40
H       2.59       8.79       4.76
H       3.24      10.24       5.56
H       5.13       6.27       7.40
H       6.28       7.06       6.29
H       5.95       5.32       6.14
H      -1.42      -3.35      12.22
H       0.13      -3.07      11.41
H       5.72       3.62       0.64
H      11.25       1.85       0.85
H       0.48       4.57       0.48
H       6.29       0.86       8.29
H      -1.38       9.56       6.40
H      -1.74      10.94       5.37
C      -3.89      10.22       1.87
C      -7.42       4.86      10.22
C      -5.52      -0.54      12.40
C       9.32       6.25       2.63
C       6.30       0.07       9.03
C      -4.73       0.11      11.43
C       6.53      -1.31       8.87
C      -8.11       5.05       8.99
C      -1.89       1.97       2.16
C      -1.00      10.55       6.09
C       4.98      -2.33       7.29
C      -5.37       6.70       3.94
C       1.29       9.58       6.32
C       6.74      -2.08       5.06
C       0.35      10.35       5.35
C       1.89       0.82      10.69
C       6.49      -2.10       7.58
C       7.18      -3.47       7.68
C       7.10      -1.36       6.38
C      -6.49       6.24       7.58
C       7.21       5.86       7.83
C      -5.84       6.71       6.38
C       1.10      -0.27      11.14
C       8.74       6.60       5.09
C      -1.16      -1.33      11.49
C      -0.34      -0.34      11.06
C      -2.61      -1.16      11.56
C      -0.26       8.20       4.01
C      -3.38      -0.19      11.01
C      12.97      -0.51       1.92
C      -1.39       0.63       2.32
C       7.75      12.00       1.79
C      -5.99      11.62       2.18
C       0.05       9.56       4.10
C       2.06      -1.11      11.75
C      -0.20      10.04       2.81
C      -3.99       6.99       3.88
C       9.35       9.52       0.71
C      -5.27      10.48       1.68
C      -6.23       5.55      10.79
C       2.67       9.31       5.72
C       6.09       6.15       6.86
C      -0.62      -2.62      12.07
C      -5.45       1.29      11.17
C       6.43      -1.81      10.18
C       5.81       4.13       9.07
C      -1.30       3.17       2.59
C      12.00       2.42       1.40
N      -3.49       9.23       1.05
N       3.18       0.64      11.01
N      -0.67       7.89       2.77
N       3.28      -0.56      11.67
N      -0.63       9.04       2.01
N      -3.52       6.70       2.65
N      10.42       8.80       0.34
N      -6.55       1.34      11.94
N       6.13      -0.81      11.04
N       5.87       3.44      10.22
N      -1.98       4.24       2.13
N      11.95       3.77       1.39
N      -8.04       3.89      10.93
N      -0.74       6.28       0.28
N       6.05       0.35      10.33
N      10.44       6.25       1.89
