120

Ca      15.89       5.05       9.76
Ca      10.32      10.07       3.25
Cd      17.06       2.04       8.02
Cd      17.06       8.05      11.50
Cd       9.16      13.08       4.99
Cd       9.16       7.06       1.51
H      14.93       6.48       6.61
H      14.92       3.61      12.90
H      11.29       8.63       6.39
H      11.30      11.51       0.11
H      13.26       7.75       5.25
H      13.25      12.39       1.26
H      12.96       7.37       7.76
H      12.96       2.72      11.75
H      12.41       4.20       2.99
H       5.85       3.36       3.52
H      13.81      10.92      10.02
H      20.36      11.75       9.49
H      14.07       2.94       4.32
H       7.52       4.62       2.19
H      12.14      12.18       8.69
H      18.70      10.49      10.82
H      18.38       4.53      12.25
H      18.39       5.56       7.27
H       7.83      10.58       0.76
H       7.83       9.56       5.74
H      13.19      13.12      11.53
H      19.75       9.56       7.98
H      13.02       2.00       1.47
H       6.47       5.56       5.03
H       6.06       3.27       6.40
H      12.62       4.29       0.11
H      20.16      11.84       6.61
H      13.60      10.83      12.90
H       5.40       2.07       5.60
H      11.95       5.49       0.91
H      20.82      13.05       7.41
H      14.26       9.62      12.10
H      12.84       4.28       9.96
H      12.85       5.81       9.56
H      13.37      10.83       3.05
H      13.37       9.31       3.45
C      14.60       4.63       5.56
C       8.04       2.93       0.94
C      11.62      10.49       7.45
C      18.17      12.18      12.07
C      14.39       5.99       5.81
C       7.83       1.57       0.70
C      11.83       9.12       7.20
C      18.39      13.55      12.31
C      13.46       6.70       5.04
C       6.91       0.86       1.47
C      12.75       8.42       7.97
C      19.31      14.25      11.54
C      12.74       6.05       4.02
C       6.18       1.51       2.48
C      13.47       9.06       8.99
C      20.03      13.61      10.53
C      12.98       4.70       3.76
C       6.43       2.86       2.74
C      13.23      10.42       9.25
C      19.79      12.25      10.27
C      13.91       3.99       4.52
C       7.35       3.57       1.98
C      12.31      11.13       8.49
C      18.86      11.55      11.03
C      15.51       3.84       6.44
C       8.96       3.72       0.07
C      10.70      11.28       6.57
C      17.26      11.40      12.94
C      11.67       6.80       3.28
C       5.12       0.76       3.23
C      14.54       8.32       9.73
C      21.10      14.35       9.78
C      18.32       2.53      10.45
C      18.31       7.56       9.06
C       7.90      12.59       2.56
C       7.90       7.55       3.95
C      19.01       2.53      11.77
C      19.01       7.56       7.74
C       7.21      12.58       1.24
C       7.21       7.56       5.27
C      18.95       3.67      12.59
C      18.96       6.42       6.92
C       7.26      11.45       0.42
C       7.26       8.69       6.09
C      13.16      13.98      12.20
C      19.72       8.69       7.32
C      13.05       1.13       0.81
C       6.50       6.42       5.69
O      16.00       4.37       7.49
O      15.99       5.72      12.02
O      10.22      10.75       5.52
O      10.22       9.39       0.99
O       5.73       2.36       6.50
O      12.29       5.20       0.01
O      20.48      12.75       6.51
O      13.92       9.92      13.00
O      15.79       2.63       6.12
O       9.24       4.93       0.38
O      10.42      12.49       6.89
O      16.98      10.19      12.63
O      13.41       5.04       9.75
O      12.80      10.07       3.26
O      11.19       6.23       2.23
O       4.63       1.33       4.28
O      15.03       8.88      10.78
O      21.58      13.79       8.73
O      11.28       7.91       3.73
O      11.28      12.23       2.78
O      14.93       7.21       9.28
O      14.94       2.88      10.23
O      11.75      14.02       9.78
O      18.31       8.66       9.73
O      14.46       1.10       3.23
O       7.91       6.46       3.28
O      17.76       3.59      10.02
O      17.76       6.50       9.49
O       8.45      11.53       2.99
O       8.46       8.61       3.52
