66

Al      -3.11       6.77       8.68
Al       0.21       6.77       8.68
H      -1.45       7.78      10.13
H       1.88       5.70       7.26
H       3.18       6.20       4.65
H       3.09       6.43       2.16
H       0.46       7.97       4.67
H      -0.06       5.58      12.67
H      -2.84       7.47      12.75
H      -2.80       7.29      15.24
H       0.61       2.73       8.37
H      -0.13      10.79       9.21
H      -2.71      10.89       7.80
H      -2.74      13.33       7.89
H       3.07       2.65       9.38
H       3.09       0.22       9.27
H       1.50       8.75       2.66
H       0.32       9.43       1.50
H       1.06       7.86       1.18
H      -0.74       5.73      16.16
H       0.03       4.18      15.85
H      -1.13       4.84      14.67
C       1.93       9.17       8.52
C       1.82       6.66      11.09
C      -1.51       4.36       8.84
C      -1.41       6.89       6.27
C      -1.48       7.06       4.80
C       4.01       6.64       4.10
C       3.96       6.78       2.72
C      -1.60       7.37       2.02
C      -0.45       7.83       2.72
C      -0.41       7.64       4.10
C      -1.67       7.50       0.61
C       1.97       6.18      16.77
C       1.92       6.29      15.36
C       0.80       5.79      14.64
C       0.79       5.94      13.25
C       1.86       6.54      12.57
C      -3.66       7.01      13.29
C      -3.64       6.91      14.67
C      -1.49       2.87       8.87
C       1.91      10.66       8.50
C      -0.31       2.18       8.58
C      -0.31       0.80       8.53
C       0.76      11.34       8.93
C       0.78      12.72       9.01
C      -3.60      11.41       8.13
C      -3.63      12.79       8.19
C       3.99       2.13       9.14
C       4.01       0.74       9.08
C      -1.46      -0.00       8.76
C       1.88      13.53       8.66
C       0.67       8.50       1.99
C      -0.32       5.10      15.36
O       3.05       8.60       8.31
O       0.70       6.48      10.52
O      -0.41       4.95       8.57
O      -2.49       6.58       6.88
O      -2.63       4.93       9.05
O      -0.28       7.06       6.84
O       0.83       8.58       8.78
O       2.91       6.95      10.49
O      -1.45       7.37       9.25
O       1.87       6.17       8.11
F       0.90       0.24       8.23
F      -0.39      13.27       9.49
