296

Pr       9.65      -4.89      13.57
Pr      -0.51       4.89      13.57
Pr      -2.19      13.87       4.52
Pr       7.96       4.09       4.52
Co       8.66       4.19      13.57
Co       0.48      -4.19      13.57
Co      -1.20       4.79       4.52
Co       6.98      13.17       4.52
H       9.25       2.14      15.76
H      -0.11      -2.14      15.76
H      -1.65      -3.99      11.38
H      10.79       3.99      11.38
H      -1.79       6.84       2.33
H       7.57      11.12       2.33
H       9.11      12.97       6.71
H      -3.33       4.99       6.71
H       9.71      -0.34      15.69
H      -0.57       0.34      15.69
H      -4.17      -3.99      11.45
H      -4.97       3.99      11.45
H      -2.25       9.32       2.40
H       8.03       8.64       2.40
H      11.63      12.97       6.64
H      12.42       4.99       6.64
H       8.36       0.97       9.83
H       0.78      -0.97       9.83
H      -2.63      -5.08      17.32
H      -6.50       5.08      17.32
H      -0.90       8.02       8.27
H       6.68       9.95       8.27
H      10.09      14.06       0.78
H      13.96       3.90       0.78
H       8.96      -0.28      11.49
H       0.17       0.28      11.49
H      -3.97      -4.71      15.66
H      -5.16       4.71      15.66
H      -1.51       9.26       6.61
H       7.28       8.70       6.61
H      11.43      13.69       2.44
H      12.62       4.27       2.44
H       7.71       5.01       8.60
H      -1.94      12.96       8.60
H       8.91       4.01       0.45
H      15.14      13.95       0.45
H      -0.26       3.97       9.50
H       9.39      -3.97       9.50
H      -1.45       4.97      17.65
H      -7.68      -4.97      17.65
H       8.04       5.74      10.99
H      -2.26      12.23      10.99
H       2.11      -4.52      16.15
H       7.03       4.52      16.15
H      -0.58       3.25       7.10
H       9.72      -3.24       7.10
H       5.34      13.50       1.95
H       0.43       4.46       1.95
H       6.54       2.08      14.01
H       2.60      -2.08      14.01
H      -4.57      11.30      13.14
H      10.34       6.66      13.14
H       0.92       6.90       4.09
H       4.86      11.06       4.09
H      12.02      -2.32       4.96
H      -2.89       2.32       4.96
H       4.02       2.17      14.10
H       5.12      -2.17      14.10
H      -4.02       8.84      13.04
H       9.79       9.12      13.04
H       3.44       6.81       3.99
H       2.34      11.15       3.99
H      11.47       0.14       5.05
H      -2.34      -0.14       5.05
H       4.23       6.41      13.54
H       4.91      -6.40      13.54
H       0.11       9.83      13.60
H       5.67       8.14      13.60
H       3.23       2.58       4.56
H       2.55      15.39       4.56
H       7.35      -0.84       4.49
H       1.79       0.84       4.49
C       9.21       1.58      14.83
C      -0.07      -1.58      14.83
C      -2.19      -4.13      12.31
C      -6.95       4.13      12.31
C      -1.75       7.40       3.27
C       7.52      10.56       3.26
C       9.65      13.12       5.78
C      14.41       4.85       5.78
C       9.46       0.21      14.79
C      -0.32      -0.21      14.79
C      -3.58      -4.14      12.35
C      -5.56       4.14      12.35
C      -2.00       8.77       3.30
C       7.77       9.20       3.30
C      11.03      13.12       5.74
C      13.02       4.84       5.74
C       9.38      -0.46      13.57
C      -0.24       0.47      13.57
C      -4.23      -4.34      13.57
C      -4.91       4.34      13.57
C      -1.92       9.45       4.52
C       7.70       8.52       4.52
C      11.69      13.32       4.52
C      12.36       4.64       4.52
C       9.04       0.26      12.43
C       0.10      -0.26      12.43
C      -3.46      -4.54      14.71
C      -5.68       4.54      14.71
C      -1.58       8.73       5.66
C       7.36       9.24       5.66
C      10.92      13.52       3.38
C      13.14       4.44       3.38
C       8.82       1.63      12.52
C       0.32      -1.63      12.52
C      -2.07      -4.51      14.62
C      -7.07       4.51      14.62
C      -1.36       7.35       5.57
C       7.14      10.61       5.57
C       9.53      13.49       3.47
C      14.52       4.48       3.47
C       8.49       2.48      11.39
C       0.65      -2.48      11.39
C      -1.17      -4.67      15.75
C      -7.97       4.67      15.75
C      -1.03       6.50       6.71
C       6.81      11.47       6.71
C       8.63      13.65       2.34
C      15.43       4.31       2.34
C       8.30       2.02      10.09
C       0.84      -2.02      10.09
C      -1.58      -4.94      17.05
C      -7.55       4.95      17.05
C      -0.84       6.96       8.01
C       6.62      11.01       8.00
C       9.04      13.93       1.04
C      15.01       4.03       1.04
C       8.01       2.93       9.07
C       1.12      -2.93       9.07
C      -0.64      -5.06      18.07
C      -8.49       5.06      18.07
C      -0.56       6.06       9.03
C       6.33      11.91       9.03
C       8.10      14.04       0.02
C      15.95       3.92       0.02
C       7.92       4.29       9.39
C       1.22      -4.29       9.39
C       0.71      -4.90      17.75
C      -9.84       4.90      17.75
C      -0.46       4.70       8.71
C       6.24      13.27       8.70
C       6.75      13.88       0.34
C      17.30       4.08       0.34
C       8.11       4.69      10.71
C       1.03      -4.69      10.71
C       1.07      -4.64      16.43
C       8.07       4.64      16.43
C      -0.65       4.29       7.39
C       6.43      13.67       7.39
C       6.39      13.62       1.66
C      -0.61       4.34       1.66
C       9.64      -1.95      13.48
C      -0.50       1.95      13.48
C      -5.74      -4.36      13.66
C      -3.40       4.36      13.66
C      -2.18      10.94       4.61
C       7.96       7.03       4.61
C      13.20      13.34       4.43
C      10.85       4.62       4.43
C       7.84       2.41       7.64
C       1.29      -2.41       7.64
C       6.34       3.66       1.41
C      -0.56      14.30       1.41
C      -0.39       6.57      10.46
C       6.17      11.39      10.46
C       1.12       5.32      16.68
C       8.02      -5.32      16.68
C       6.00       3.02      13.92
C       3.14      -3.02      13.92
C      -3.54      10.94      13.22
C       9.32       7.02      13.22
C       1.46       5.96       4.18
C       4.32      12.00       4.18
C      11.00      -1.96       4.87
C      -1.86       1.96       4.87
C       4.61       3.07      13.96
C       4.52      -3.07      13.96
C      -3.24       9.59      13.18
C       9.02       8.37      13.18
C       2.84       5.91       4.13
C       2.93      12.05       4.13
C      10.70      -0.61       4.92
C      -1.56       0.61       4.92
C       3.97       4.30      13.81
C       5.17      -4.30      13.81
C      -1.91       9.18      13.33
C       7.69       8.78      13.33
C       3.49       4.68       4.29
C       2.29      13.28       4.29
C       9.37      -0.20       4.76
C      -0.23       0.20       4.76
C       4.74       5.45      13.66
C       4.40      -5.45      13.66
C      -0.92      10.15      13.48
C       6.70       7.81      13.48
C       2.72       3.53       4.43
C       3.06      14.43       4.43
C       8.38      -1.17       4.61
C       0.76       1.17       4.61
C       6.13       5.35      13.65
C       3.01      -5.35      13.65
C       2.08      -6.46      13.49
C       7.06       6.47      13.49
C       1.33       3.63       4.45
C       4.45      14.33       4.45
C       5.38      15.45       4.60
C       0.40       2.52       4.60
C       2.46       4.37      13.75
C       6.68      -4.37      13.75
C      -1.56       7.71      13.40
C       7.34      10.25      13.40
C       5.00       4.61       4.35
C       0.78      13.35       4.35
C       9.02       1.27       4.70
C       0.12      -1.27       4.70
N       8.90       2.28      13.72
N       0.24      -2.28      13.72
N      -1.44      -4.31      13.43
N      10.58       4.31      13.43
N      -1.44       6.70       4.38
N       7.22      11.26       4.38
N       8.90      13.29       4.67
N      -3.13       4.68       4.67
N       8.39       3.81      11.69
N       0.74      -3.81      11.69
N       0.15      -4.52      15.45
N       8.99       4.52      15.45
N      -0.94       5.17       6.40
N       6.71      12.79       6.40
N       7.30      13.50       2.64
N      -1.53       4.46       2.64
N       6.74       4.13      13.76
N       2.39      -4.13      13.76
N       0.77      -6.08      13.38
N       8.36       6.08      13.38
N       0.71       4.85       4.33
N       5.06      13.11       4.33
N       6.68      15.06       4.71
N      -0.91       2.90       4.71
O      10.08      -2.51      14.53
O      -0.95       2.51      14.53
O      11.90      -4.02      12.61
O      -2.77       4.02      12.61
O      -2.63      11.49       3.57
O       8.41       6.47       3.57
O      -4.45      13.00       5.48
O      10.22       4.96       5.48
O       9.36      -2.52      12.38
O      -0.22       2.52      12.38
O      -6.25      -4.73      14.76
O      -2.89       4.74      14.76
O      -1.90      11.50       5.71
O       7.68       6.46       5.71
O      13.71      13.72       3.34
O      10.34       4.25       3.34
O       7.89       1.18       7.48
O       1.25      -1.18       7.48
O       5.11       3.48       1.57
O       0.66      14.49       1.57
O      -0.43       7.81      10.62
O       6.21      10.16      10.62
O       2.34       5.50      16.52
O       6.80      -5.50      16.52
O       7.70       3.35       6.79
O       1.44      -3.35       6.79
O       7.29       3.69       2.26
O      -1.51      14.27       2.26
O      -0.24       5.63      11.31
O       6.02      12.33      11.31
O       0.17       5.29      15.84
O       8.97      -5.29      15.84
O       1.81       3.39      14.19
O       7.33      -3.39      14.19
O      -2.41       6.89      12.95
O       8.19      11.08      12.95
O       5.65       5.59       3.90
O       0.13      12.37       3.90
O       9.87       2.09       5.15
O      -0.73      -2.09       5.15
O       1.97       5.42      13.21
O       7.17      -5.41      13.21
O      -0.45       7.43      13.93
O       6.23      10.54      13.93
O       5.49       3.57       4.89
O       0.29      14.40       4.89
O       7.91       1.56       4.16
O       1.23      -1.56       4.16
