159

Zn       8.25       5.12       0.83
Zn      15.83      13.32      15.65
Zn       8.15       7.48       2.95
Zn      15.94      10.96      13.53
Zn      10.95       6.28       2.30
Zn      13.14      12.16      14.18
Zn       9.50       7.88       0.00
H      12.50       6.72       6.18
H      11.58      11.72      10.31
H      13.18       7.10       8.54
H      10.90      11.34       7.95
H       9.12       8.15       9.52
H      14.96      10.29       6.96
H       8.47       7.82       7.15
H      15.61      10.62       9.34
H       7.47      11.59       3.91
H      16.61       6.85      12.57
H       6.39      13.83       4.03
H      17.70       4.61      12.46
H      10.77      16.37      16.25
H      13.31       2.07       0.23
H      11.89      14.16      16.15
H      12.20       4.28       0.33
H      15.58       5.41       4.04
H       8.50      13.03      12.45
H      13.08       5.48       4.01
H      11.00      12.96      12.48
H      13.01       6.95       0.14
H      11.07      11.49      16.34
H      20.58       9.52      16.45
H       3.51       8.92       0.04
H      10.98       9.92      13.27
H      13.10       8.52       3.22
H      10.23       9.50      10.95
H      13.85       8.94       5.54
H      13.08       6.28      10.63
H      11.00      12.16       5.85
H      13.79       6.68      12.98
H      10.30      11.76       3.50
H      12.36       2.55       3.40
H      11.72      15.89      13.09
H      19.60      16.11       3.33
H       4.48       2.33      13.15
H      16.58      14.63       0.63
H       7.50       3.81      15.85
H       9.36       1.08       0.72
H      14.73      17.37      15.77
H       5.75       8.16       4.44
H      18.34      10.28      12.04
H       4.23       7.29       4.79
H      19.85      11.15      11.70
H       4.24       8.62       3.62
H      19.84       9.82      12.87
H      10.81       6.79      16.03
H      13.28      11.65       0.46
H       9.39       7.78      15.65
H      14.70      10.66       0.83
H       4.15       3.73       0.28
H      19.93      14.71      16.20
C      12.88       8.58      14.67
C      11.21       9.86       1.81
C      10.44       7.24       6.52
C      13.64      11.20       9.97
C      11.77       7.03       6.92
C      12.32      11.41       9.56
C      12.14       7.23       8.25
C      11.94      11.21       8.24
C      11.20       7.64       9.21
C      12.88      10.80       7.27
C       9.88       7.85       8.79
C      14.21      10.59       7.69
C       9.50       7.66       7.47
C      14.58      10.78       9.02
C       7.20      11.38       1.79
C      16.89       7.06      14.70
C       7.09      12.07       3.01
C      17.00       6.37      13.47
C       6.48      13.32       3.07
C      17.60       5.12      13.42
C       5.94      13.91       1.91
C      18.14       4.53      14.57
C       6.06      13.23       0.69
C      18.02       5.21      15.80
C       6.70      11.99       0.62
C      17.39       6.45      15.86
C      15.77       6.14       2.00
C       8.32      12.30      14.48
C      15.05       5.76       3.15
C       9.03      12.68      13.33
C      13.67       5.79       3.14
C      10.42      12.65      13.34
C      13.63       6.60       0.97
C      10.46      11.85      15.52
C      15.01       6.54       0.89
C       9.07      11.90      15.60
C      12.43       8.33      13.27
C      11.65      10.11       3.21
C      11.43       9.11      12.69
C      12.66       9.33       3.79
C      11.01       8.87      11.39
C      13.08       9.57       5.10
C      11.61       7.86      10.61
C      12.47      10.58       5.87
C      12.62       7.08      11.20
C      11.46      11.36       5.28
C      13.02       7.30      12.52
C      11.07      11.14       3.96
C      11.96       1.73       2.81
C      12.13      16.71      13.67
C      12.60       0.50       2.77
C      11.49      17.94      13.71
C      18.18      15.21       1.97
C       5.91       3.23      14.51
C      17.00      15.43       1.24
C       7.08       3.01      15.25
C      10.27       0.90       1.29
C      13.82      17.54      15.19
C      10.79       1.95       2.07
C      13.30      16.50      14.42
C      10.06       7.06       5.08
C      14.03      11.38      11.40
C      10.17       3.31       2.03
C      13.92      15.13      14.45
C       7.78      10.01       1.74
C      16.31       8.43      14.74
C       4.82       7.77       3.99
C      19.26      10.67      12.49
C       5.15       6.82       2.89
C      18.93      11.62      13.59
C       4.30       6.14       1.99
C      19.79      12.30      14.49
C       5.16       5.44       1.12
C      18.92      13.00      15.37
C       9.90       7.23      16.45
C      14.19      11.21       0.03
N       6.42       6.54       2.56
N      17.66      11.90      13.93
N       6.43       5.68       1.49
N      17.65      12.76      14.99
N      12.96       6.22       2.08
N      11.13      12.22      14.41
O       9.24       6.69       1.52
O      14.85      11.76      14.96
O      12.88       9.77      15.13
O      11.20       8.67       1.35
O      13.22       7.55      15.35
O      10.86      10.89       1.13
O      10.98       6.75       4.27
O      13.10      11.69      12.22
O       8.83       7.24       4.78
O      15.26      11.20      11.70
O       9.05       3.42       1.42
O      15.04      15.02      15.07
O      10.82       4.25       2.59
O      13.27      14.20      13.89
O       7.98       9.44       2.88
O      16.10       9.00      13.60
O       8.00       9.46       0.62
O      16.08       8.98      15.87
