182

Al      11.74       6.99      13.75
Al       8.58       6.74      13.97
Al      10.18       4.19      14.04
Al       1.57       0.75       0.28
Al       3.07       3.57       0.15
Al       4.74       1.06       0.17
H       4.60       4.68       8.90
H       4.80       6.27      19.72
H       9.27       3.10      24.43
H      10.44       2.51      22.30
H      10.54       2.61      19.83
H       9.65       3.47      17.68
H      13.49       6.55      19.65
H       9.09       8.17      20.36
H       9.72       8.66      22.72
H      12.57      11.60      21.36
H      11.95      11.11      19.00
H      11.07       2.62      10.55
H       8.28       2.50       8.26
H      14.13       5.21       3.60
H      14.33       6.67       5.61
H      12.00       1.50       3.90
H       6.99       6.92       2.15
H       8.55       7.73       1.80
H       7.00       8.56       1.38
H       7.48       6.43      10.42
H       6.05       6.95       9.48
H       6.03       7.03      11.27
H       6.25       8.40       8.15
H      16.62       8.53       6.88
H       5.20       6.86       6.87
H      16.29       7.47       5.48
H      12.94       8.19      21.16
H      14.70       8.19      20.76
H      14.12       8.91      22.30
H       3.53       2.29      23.28
H       3.24       1.18      21.89
H       8.53      11.47      23.54
H      11.55      10.37       3.70
H      12.76      10.45       5.85
H      12.76      10.26       8.30
H       4.15       4.61       6.45
H       5.75       5.58      24.36
H       4.74       6.25      22.19
H      13.52       8.37      14.38
H      19.74      11.62      27.41
C       9.65       8.24      11.91
C      13.35       5.01       8.45
C      13.46       4.69       5.60
C       7.88       4.37      12.42
C      13.95       5.86       6.23
C      13.91       6.03       7.59
C      13.59       4.49       4.22
C      13.07       3.34       3.63
C      11.75       3.22       9.95
C      11.93       2.97       8.59
C      12.68       3.91       7.81
C       7.14       2.97       6.50
C      11.34       1.83       7.93
C      11.51       1.62       6.59
C      12.22       2.57       5.77
C      12.03       4.60      11.99
C      12.78       3.72       6.40
C      12.38       2.39       4.39
C      12.44       4.25      10.59
C       8.35       8.72       9.78
C       8.35       8.86       8.37
C       8.38       8.93       5.50
C       7.38       2.97       7.87
C       7.20       8.54       6.24
C       7.17       8.59       7.61
C       8.44       8.98       4.07
C       9.57       9.59       3.44
C       9.96       8.41      15.70
C      10.70       9.33       9.85
C      10.72       9.53       8.44
C       9.54       9.22       7.69
C      11.87      10.00       7.73
C      11.87      10.10       6.37
C       6.47       3.60       8.74
C      10.72       9.76       5.59
C       9.53       9.31       6.26
C      10.70       9.92       4.21
C       9.55       8.83      10.53
C       6.76       5.21      18.15
C       8.18       4.83      16.03
C       6.66       5.16      19.56
C       6.57       5.10      22.42
C       5.55       5.76      21.65
C       5.59       5.78      20.29
C       5.97       3.56       5.96
C       6.55       5.08      23.82
C       7.52       4.36      24.53
C       8.82       3.92      18.22
C       8.75       3.82      19.61
C       7.68       4.47      20.30
C       9.74       3.11      20.37
C      12.21       4.71      15.79
C       9.68       3.06      21.74
C       8.63       3.72      22.46
C       7.63       4.43      21.72
C       5.74       3.54       4.57
C       8.54       3.67      23.86
C       7.86       4.63      17.48
C      12.73       4.47      17.11
C      13.55       5.66      20.28
C      13.85       5.74      21.63
C      13.64       3.30      21.81
C      13.38       3.22      20.44
C       7.19       3.92      11.25
C      13.32       4.41      19.67
C      13.91       4.55      22.42
C       6.82       3.73      10.11
C      14.28       4.58      23.77
C      13.01       4.38      18.29
C      14.65       4.52      24.93
C       9.97       9.02      17.01
C       9.85       8.92      20.59
C      10.21       9.19      21.90
C      11.81      10.85      21.14
C      11.46      10.58      19.82
C       5.30       4.19       8.22
C      10.48       9.61      19.53
C       5.57       3.48       3.37
C      11.19      10.16      22.20
C      11.47      10.48      23.54
C      10.16       9.31      18.18
C      11.62      10.80      24.71
C      13.33       3.04       2.19
C       5.18       3.21       2.01
C       9.49      10.16       2.08
C      15.29       4.23      26.18
C       7.34       4.23      26.00
C       5.05       4.16       6.86
C      13.36       5.04       9.87
C      11.59      11.37      26.04
C       7.51       7.89       2.09
C       6.65       7.15      10.38
C       4.97       7.73       6.24
C      13.96       8.12      21.57
C       2.83       1.57      22.83
Cl      16.75      10.94       5.82
Cl      10.45       0.70       8.89
Cl      12.13       9.78      10.72
Cl       5.48       5.95      17.26
Cl       8.28       2.24       5.44
Cl      13.13       1.69      19.70
Cl      14.57       5.91      10.73
Cl      14.34       7.58       8.20
O      12.28       5.76      12.39
O       5.61       2.13       1.49
O      10.59      10.48       1.48
O      10.80       8.01      12.38
O      10.44      11.61      26.50
O      15.05       3.10      26.71
O      16.11       5.13      26.63
O       6.58       5.08      26.58
O       7.87       3.22      26.59
O      12.71      11.64      26.60
O       3.14       1.81       0.17
O       7.78       5.90      15.47
O       8.56       7.88      12.52
O       7.57       5.52      12.89
O       8.82       3.62      12.87
O      11.34       3.73      12.64
O      12.48       5.82      15.26
O      11.09       8.14      15.22
O       8.82       8.16      15.17
O       7.41       8.44       3.41
O       7.15       8.49      10.40
O       6.11       8.16       5.52
O       8.93       3.96      15.47
O      14.11       6.89      22.30
O      13.60       2.18      22.58
O      11.46       3.78      15.30
O      10.15       5.95      13.95
O       8.34      10.41       1.61
O      13.04       1.89       1.76
O      13.91       3.97       1.50
O       4.36       4.03       1.46
O      13.24       7.88      13.60
O       6.04      10.42       0.38
