82

Al       1.19      17.59      10.19
H       3.10      15.45      13.87
H       3.09      15.42      16.34
H       3.60       4.07       0.27
H       2.93      19.76       6.47
H       3.23      21.89       5.24
H       2.29      23.73       4.64
H       1.15       2.34       3.37
H       2.34       3.72       2.13
H       3.45      21.84      10.20
H       3.46      23.99       9.00
H       3.67       4.00       6.46
H       2.99      13.30      10.17
H       3.03      11.17       8.92
H       1.75       9.85       7.71
H       1.58       7.71       6.53
H       2.62       5.84       5.87
H       3.23      15.49       6.48
H       3.00      13.38       5.21
H       4.04       9.30       3.36
H       3.26      19.75      13.92
H       3.49      19.71      16.39
H       2.30      19.37      18.27
H       1.28       7.70       0.36
H       2.66       8.01       2.16
H       4.61      12.26       5.03
H       4.85      15.73      17.18
H       5.13      24.53       8.19
C       3.18      17.60      12.25
C       3.17      15.81       9.16
C       3.18      19.37       9.15
C       3.17      16.38      14.43
C       3.20      16.37      15.82
C       4.12      16.55      18.75
C       4.16      16.56      20.14
C       3.09      20.69       7.02
C       3.24      21.89       6.33
C       2.90      24.55       5.02
C       2.96      25.73       4.30
C       3.19      17.60      13.74
C       3.34      17.56      16.57
C       3.44      17.56      18.04
C       2.44       5.88       0.51
C       2.49       5.87       1.98
C       2.43       4.66       2.69
C       3.38      21.86       9.11
C       3.43      23.07       8.43
C       4.26      25.49       6.76
C       4.31      26.69       6.05
C       3.03      13.31       9.08
C       3.04      12.11       8.37
C       2.29       9.72       6.77
C       2.19       8.51       6.11
C       3.21      20.66       8.41
C       3.41      23.12       7.01
C       3.53      24.38       6.27
C       2.41       3.35       4.82
C       2.47       4.63       4.09
C       2.58       5.84       4.78
C       3.17      14.54       7.01
C       3.08      13.34       6.30
C       3.62      10.62       4.98
C       3.50       9.41       4.30
C       3.26      18.80      14.46
C       3.37      18.77      15.85
C       2.86      18.60      18.79
C       2.92      18.62      20.18
C       3.13      14.53       8.41
C       3.05      12.09       6.96
C       2.99      10.82       6.23
C       2.78       8.34       4.84
C       2.66       7.07       4.10
C       2.60       7.06       2.70
O       2.25      18.54       8.88
O       2.25      18.25      11.66
O       2.25      16.00      10.03
O       4.11      19.18      10.01
O       4.11      16.63       8.90
O       4.11      16.96      11.66
O       4.40      11.57       4.38
O       4.80      15.53      18.13
O       5.00      25.46       7.92
