208

Zn      12.45       0.24      11.27
Zn       6.46      22.10      11.19
Zn       1.95      11.41      22.42
Zn      16.97      10.93       0.04
Zn       8.91      22.24      13.66
Zn      10.00       0.10       8.80
Zn      -0.52      11.27       2.43
Zn      19.43      11.08      20.02
H       4.26      20.24       9.41
H      14.65       2.10      13.05
H      12.42       3.45      11.27
H       6.49      18.90      11.19
H      16.99       7.73       0.04
H       1.92      14.62      22.42
H       4.14      13.27      20.63
H      14.77       9.07       1.82
H       9.45      19.42       8.05
H       9.46       2.93      14.41
H       9.01       2.73       7.32
H       9.90      19.62      15.13
H       0.45       8.45      18.55
H      18.46      13.89       3.91
H      18.92      14.11      19.28
H      -0.00       8.24       3.18
H      14.90      19.46      13.65
H      14.68      21.11      14.33
H      15.59      20.89      12.80
H       4.23       1.23       8.12
H       4.01       2.88       8.81
H       3.32       1.45       9.65
H       5.01       3.77      12.12
H       4.27       3.48      13.73
H       3.55       2.73      12.27
H      14.64      18.86       8.72
H      13.90      18.58      10.34
H      15.36      19.61      10.19
H       4.45       7.40       0.89
H       5.19       7.69       2.50
H       5.91       8.44       1.04
H      13.72      14.66      19.95
H      14.46      14.94      21.56
H      13.00      13.91      21.42
H      13.46      14.05       2.42
H      13.67      12.41       3.10
H      12.77      12.63       1.57
H       5.24       9.94      19.35
H       5.46       8.29      20.03
H       6.15       9.72      20.88
C      12.39      20.50      13.18
C       6.52       1.85       9.28
C       6.56       1.97      13.20
C      12.36      20.38       9.26
C       2.90       9.20       1.97
C      16.01      13.14      20.49
C      15.97      13.02       1.95
C       2.95       9.32      20.50
C      14.49       2.29      15.99
C       4.42      20.06       6.47
C       6.37      17.30      13.73
C      12.55       5.05       8.72
C       2.03      16.21       2.52
C      16.88       6.14      19.94
C      14.93       8.89       4.76
C       3.98      13.46      17.69
C      16.10       3.55      17.60
C       2.81      18.80       4.86
C       5.33      15.16      14.81
C      13.58       7.18       7.65
C       3.07      18.35       3.59
C      15.84       4.00      18.87
C      13.32       7.63       6.37
C       5.59      14.71      16.08
C       3.64      19.57       5.66
C      15.27       2.78      16.80
C      12.95       6.11       8.27
C       5.96      16.23      14.19
C      16.47       5.07      19.49
C       2.44      17.27       2.97
C       4.76      13.95      16.88
C      14.16       8.40       5.57
C       5.15      20.52       8.84
C      13.76       1.82      13.62
C      12.16       3.07      10.29
C       6.75      19.27      12.17
C      17.27       8.11      21.51
C       1.64      14.24       0.95
C       3.26      13.00      20.06
C      15.66       9.35       2.39
C       7.17      19.61      14.31
C      11.75       2.73       8.14
C      12.25       1.39      15.17
C       6.66      20.96       7.29
C      17.17       9.78       3.94
C       1.75      12.56      18.52
C       1.23      13.89       3.10
C      17.68       8.45      19.36
C      10.32      19.85       8.53
C       8.59       2.50      13.93
C       8.31       2.37       8.07
C      10.61      19.98      14.39
C       1.16       8.81      19.29
C      17.75      13.54       3.17
C      18.04      13.68      19.75
C       0.87       8.67       2.70
C      12.00      19.78      14.35
C       6.91       2.56       8.11
C       7.26       2.97      13.94
C      11.65      19.38       8.51
C       2.20       8.20       2.71
C      16.71      14.14      19.74
C      16.36      13.73       3.12
C       2.56       8.61      19.33
C       5.32      20.50       7.43
C      13.59       1.84      15.02
C      12.15       3.75       9.05
C       6.76      18.60      13.41
C      17.28       7.43      20.27
C       1.63      14.91       2.19
C       3.08      13.01      18.66
C      15.83       9.33       3.79
C      12.20      18.31       7.80
C       6.71       4.04      14.65
C       6.13       3.30       7.21
C      12.78      19.05      15.24
C       3.34       7.87      18.44
C      15.58      14.47       4.02
C      16.17      15.21      19.03
C       2.75       7.13       3.43
C      12.77      17.44       7.13
C       6.14       4.90      15.32
C       5.45       3.95       6.42
C      13.46      18.39      16.04
C       4.02       7.22      17.64
C      14.90      15.12       4.81
C      15.59      16.08      18.36
C       3.32       6.27       4.10
C      13.46      16.59       6.37
C       5.46       5.76      16.09
C       4.70       4.69       5.59
C      14.22      17.65      16.86
C       4.77       6.48      16.82
C      14.14      15.86       5.64
C      14.91      16.93      17.59
C       4.01       5.41       4.86
C      14.76      20.53      13.41
C       4.15       1.82       9.05
C       4.48       3.04      12.75
C      14.43      19.31       9.70
C       4.98       8.13       1.52
C      13.93      14.21      20.93
C      13.60      12.99       2.18
C       5.31       9.35      20.27
Br       7.36      19.47      16.17
Br      11.55       2.88       6.29
Br      11.27       1.11      16.73
Br       7.64      21.24       5.72
Br      18.15      10.07       5.50
Br       0.76      12.28      16.95
Br       1.04      14.04       4.95
Br      17.88       8.30      17.51
Br      14.34       3.24      19.79
Br       4.56      19.11       2.66
Br       7.17      15.36      16.95
Br      11.74       6.98       5.50
Br       1.23      18.15       5.73
Br      17.68       4.19      16.73
Br      15.08       7.94       8.57
Br       3.83      14.40      13.89
N      11.31      21.03      12.59
N       7.60       1.31       9.87
N       7.40       1.00      12.81
N      11.51      21.34       9.64
N       2.06      10.16       1.58
N      16.85      12.18      20.87
N      17.05      12.49       1.36
N       1.87       9.86      21.09
N       6.27      20.93       9.45
N      12.64       1.41      13.01
N      11.81       1.78      10.11
N       7.11      20.56      12.35
N      17.63       9.40      21.33
N       1.29      12.95       1.13
N       2.13      12.58      20.67
N      16.78       9.76       1.78
N       7.36      20.77      13.69
N      11.55       1.57       8.77
N      11.70       1.14      13.97
N       7.21      21.21       8.48
N      17.72      10.03       2.75
N       1.19      12.31      19.71
N       1.03      12.73       2.47
N      17.88       9.61      19.99
N      10.25      21.01       9.19
N       8.66       1.33      13.26
N       8.70       1.62       9.12
N      10.21      20.72      13.34
N       0.76       9.55      20.34
N      18.15      12.79       2.11
N      18.11      12.51      20.42
N       0.80       9.84       2.03
O      13.58      20.72      12.59
O       5.33       1.62       9.86
O       5.26       1.83      12.88
O      13.65      20.51       9.57
O       4.20       9.34       1.65
O      14.71      13.01      20.80
O      14.78      12.80       1.37
O       4.14       9.55      21.09
