184

Cu       6.56      11.72      10.65
Cu       5.69      14.62       9.93
Cu       5.83      12.49       7.63
Cu      -0.29       9.88       2.07
Cu      -1.39       7.14       3.27
Cu      -2.68       9.75       4.26
Cu      10.88      -0.71      14.47
Cu      12.93       1.52      15.42
Cu      12.51      -1.22      17.07
Cu      -4.09      19.56      24.50
Cu      -1.52      17.69      24.21
Cu      -2.07      19.97      22.10
H       5.81      11.66      13.78
H       5.06      15.81      12.80
H       7.26      10.14       6.08
H       8.43       9.20      10.15
H       4.91      17.20       8.28
H       4.17      14.11       5.34
H      -3.71       3.12      25.44
H       0.24       5.07       1.62
H      -2.88      12.73       5.04
H       0.40      13.00       2.23
H      16.70       4.98       5.01
H      14.62       8.59       6.20
H       9.54       0.73      12.03
H      12.55       3.67      13.04
H       4.61      21.45      17.63
H       2.43      22.15      13.95
H      -4.47       2.89      17.20
H      14.47      -0.73      19.48
H      -0.45      23.44       0.82
H       3.08      20.94       0.53
H       3.87      -3.31      20.66
H       1.19      -3.66      24.05
H       1.27      16.57      23.16
H       0.23      19.32      19.98
H       2.13       3.66       0.13
H      -1.69      -2.36      23.59
H       4.45      12.23      16.32
H       3.41      13.91      18.22
H      -1.80      21.13       1.80
H      -1.89      18.88       3.36
H       8.32       2.73      10.49
H       8.62       4.43       8.35
H       2.17      -1.40      19.59
H       0.12       0.42      19.64
H       8.93       8.06       5.22
H      10.71       5.99       5.53
H       1.81      19.41      13.90
H       1.90      16.81      14.80
H      -2.36      15.23       5.87
H      -1.16      17.70       5.84
H      -2.74       3.71      19.42
H      -0.98       3.11      21.46
H       4.80      18.98       5.85
H       2.77      20.01       4.30
H      15.19       3.59       6.90
H      12.85       3.11       8.26
H       3.96      16.61      21.87
H       5.31      16.05      19.54
C       5.70      12.63      13.32
C       5.24      13.84      13.87
C       5.32      14.76      12.81
C       7.41      10.08       7.16
C       8.20       9.20       7.91
C       8.00       9.60       9.24
C       4.85      16.29       7.70
C       4.30      16.08       6.43
C       4.46      14.71       6.20
C       1.19       7.95       0.37
C       1.32       6.55       0.30
C       0.47       6.08       1.32
C      -2.11      12.57       4.30
C      -1.17      13.48       3.77
C      -0.43      12.71       2.86
C      16.34       5.99       5.17
C      15.28       6.44       5.98
C      15.27       7.84       5.78
C      10.33       1.32      12.47
C      10.86       2.55      12.05
C      11.88       2.82      12.98
C       4.14      21.85      16.74
C       3.37      21.19      15.77
C       3.02      22.21      14.86
C      -4.81       1.94      17.61
C      -4.38       1.26      18.76
C      14.47       0.09      18.77
C       0.51      22.99       0.61
C       1.03      21.75       1.02
C       2.32      21.72       0.46
C       3.34      -3.58      21.56
C       2.19      -3.00      22.14
C       1.97      -3.76      23.30
C       0.84      17.33      22.51
C       1.25      17.76      21.24
C       0.30      18.73      20.88
C      -3.25       0.14      25.11
C      -2.93      -1.19      25.08
C      -2.12      -1.42      23.93
C      -1.97      -0.20      23.33
C       4.74      14.09      15.20
C       4.37      13.31      16.26
C       3.81      14.17      17.26
C       3.90      15.44      16.74
C       0.35      20.74       1.79
C      -0.96      20.52       2.11
C      -1.01      19.34       2.92
C       0.28      18.90       3.03
C      10.39       3.32      10.92
C       9.20       3.31      10.23
C       9.35       4.19       9.12
C      10.61       4.71       9.22
C       1.44      -1.90      21.60
C       1.47      -1.22      20.41
C       0.40      -0.27      20.42
C      -0.21      -0.42      21.63
C       9.05       8.15       7.41
C       9.34       7.68       6.15
C      10.26       6.60       6.31
C      10.49       6.49       7.65
C       3.04      19.79      15.68
C       2.32      19.04      14.79
C       2.36      17.69      15.25
C       3.12      17.70      16.39
C      -1.01      14.85       4.18
C      -1.59      15.58       5.19
C      -0.97      16.86       5.18
C      -0.06      16.84       4.16
C      -3.35       1.62      19.69
C      -2.63       2.76      19.94
C      -1.72       2.46      21.00
C      -1.94       1.15      21.34
C       3.69      17.11       5.61
C       3.94      18.45       5.44
C       2.89      18.99       4.64
C       2.06      17.94       4.36
C      14.41       5.63       6.78
C      14.41       4.30       7.13
C      13.19       4.05       7.83
C      12.53       5.25       7.88
C       2.39      17.29      20.50
C       3.60      16.75      20.85
C       4.31      16.47      19.65
C       3.48      16.84      18.63
N       5.77      14.14      11.71
N       6.01      12.82      12.02
N       7.15      10.65       9.27
N       6.78      10.94       7.98
N       5.07      14.14       7.26
N       5.31      15.12       8.19
N      -0.12       7.13       1.94
N       0.33       8.28       1.35
N      -0.89      11.43       2.86
N      -1.93      11.36       3.76
N      -3.38       8.17       4.91
N      -2.72       7.03       4.55
N      11.95       1.82      13.88
N      10.98       0.89      13.57
N      10.78      -2.38      15.26
N      11.47      -2.60      16.43
N      13.65       0.08      17.70
N      13.87       1.23      16.98
N      -2.83      17.25      25.44
N      -3.95      18.04      25.52
N       2.91      -4.73      23.39
N       3.75      -4.61      22.31
N      -0.62      18.85      21.86
N      -0.28      17.99      22.88
N      -1.29       0.26      22.20
N       3.57      16.69      17.24
N       0.84      17.80       3.68
N      11.29       5.63       8.42
O      -2.64       0.77      24.03
O       4.47      15.42      15.50
O       1.13      19.73       2.34
O      11.27       4.20      10.31
O       0.39      -1.40      22.37
O       9.77       7.43       8.35
O       3.55      18.97      16.67
O      -0.07      15.62       3.53
O      -2.94       0.62      20.54
O       2.52      16.78       4.92
O      13.25       6.23       7.26
O       2.30      17.34      19.12
