160

Zn      12.81       7.42       3.26
Zn      38.37      22.18      17.67
Zn      11.19       8.34       5.90
Zn      39.99      21.25      15.04
Zn      14.40       8.34       5.89
Zn      36.78      21.26      15.05
Zn      12.80       5.55       5.90
Zn      38.38      24.05      15.04
H      31.04       4.33       8.31
H      36.09      14.15       9.96
H      19.25      16.07      20.56
H      31.93      13.52       0.37
H      19.70      18.06      18.58
H      31.48      11.54       2.36
H      25.63       8.08      18.57
H      25.56      21.52       2.36
H      20.19       9.37       1.43
H      31.00      20.22      19.51
H      33.01      16.77      19.52
H      20.14      25.26      12.62
H      18.18      12.83       1.41
H      20.93      12.12       1.41
H      30.26      17.48      19.52
H      18.23       5.64      11.62
H      32.95      23.96       9.32
H      20.97       5.36      10.88
H      30.22      24.23      10.05
H      30.22       5.33      10.84
H      20.97      24.27      10.09
H      13.97      15.26       8.37
H      37.22      14.33      12.56
H      37.28      16.64       9.30
H      13.90      12.95      11.63
H      15.10      15.45      10.97
C      10.24       5.93       7.31
C      18.64      12.07       0.78
C      19.76      10.15       0.79
C      31.42      19.45      20.15
C      16.37       9.46       2.32
C      34.81      20.13      18.62
C      31.04      17.93      20.14
C      20.15      11.66       0.80
C      18.22      10.54       0.79
C      32.96      19.06      20.15
C      17.23       9.96       1.61
C      40.94      23.67      13.62
C      33.96      19.63      19.32
C      31.45      25.51      11.62
C      19.74       4.08       9.31
C      15.36       8.88       3.14
C      35.83      20.72      17.79
C      18.67       4.78      11.11
C      32.51      24.82       9.83
C      16.36       5.34       8.16
C      34.82      24.26      12.78
C      31.01      24.97      10.23
C      25.57      21.82       1.31
C      20.18       4.63      10.70
C      18.20       4.25       9.69
C      32.98      25.35      11.25
C      17.21       4.84       8.87
C      33.98      24.76      12.06
C      18.67      24.79       9.84
C      32.52       4.81      11.09
C      31.46       4.06       9.28
C      19.72      25.54      11.66
C       9.22       5.34       8.15
C      25.62       7.78      19.62
C      41.96      24.26      12.79
C      20.17      24.99      10.27
C      31.02       4.60      10.66
C       7.37       4.25       9.66
C      43.81      25.35      11.27
C      10.24       8.87       3.15
C      40.94      20.73      17.79
C       8.36       4.83       8.85
C      42.82      24.76      12.09
C      37.78      15.81       9.81
C      12.82       1.12       0.82
C      13.41      13.79      11.13
C      13.45      15.07       9.31
C      37.74      14.53      11.62
C      12.79      11.53       8.15
C      38.39      18.07      12.78
C      37.11      14.45      10.20
C      14.07      15.15      10.74
C      12.78      13.68       9.67
C      38.41      15.92      11.26
C      12.79      12.52       8.86
C      38.37      28.48      20.11
C      38.40      17.07      12.08
C      30.79      10.55       0.32
C      20.39      19.05      20.62
C      19.22      17.15      20.72
C      31.96      12.44       0.22
C       9.22       9.46       2.31
C      41.96      20.13      18.62
C      15.35       5.92       7.32
C      35.84      23.67      13.61
C      31.71      11.35       1.30
C      12.82       2.27       1.63
C      19.47      18.24      19.63
C       7.35      10.54       0.81
C      43.83      19.06      20.13
C       8.36       9.95       1.61
C      42.83      19.64      19.32
C      12.79      10.35       7.33
C      38.39      19.24      13.61
C      12.80       4.46       3.15
C      38.39      25.14      17.78
C      26.66      21.46       0.27
C      38.37      27.32      19.30
C      24.52       8.14      20.66
C      26.74       8.13      20.67
C      24.45      21.46       0.26
C      12.81       3.28       2.32
C      38.38      26.32      18.62
C      27.91       8.89      20.42
C      23.27      20.70       0.52
C      18.13      23.63       9.20
C      33.05       5.96      11.73
C      29.52       9.98       0.64
C      32.54      17.53      20.16
C      21.66      19.61      20.30
N      28.89       9.50      20.22
N      22.30      20.09       0.71
N      17.69      22.68       8.68
N      33.49       6.91      12.25
N      28.48       9.52       0.90
N      22.70      20.08      20.04
O      12.79       7.40       5.23
O      35.67      20.62      16.53
O      11.21       5.16       6.99
O      39.97      24.44      13.94
O      14.38       8.31       2.53
O      36.80      21.28      18.40
O      10.06       8.97       4.40
O      41.12      20.62      16.53
O      15.51       7.14       6.99
O      35.67      22.45      13.94
O      11.64       9.90       6.99
O      38.40      22.20      15.70
O      39.54      19.70      13.94
O      12.80       4.25       4.41
O      38.39      25.35      16.53
O      13.93       9.88       7.00
O      37.25      19.71      13.94
O      12.79       5.57       2.54
O      38.39      24.02      18.39
O      11.21       8.31       2.54
O      39.98      21.29      18.40
O      14.38       5.15       6.99
O      36.81      24.44      13.94
O      10.07       7.14       6.99
O      41.12      22.45      13.95
O      15.52       8.97       4.41
F      27.75      20.71       0.54
F      23.43       8.89      20.40
F      30.91      25.12      12.81
F      20.28       4.48       8.12
