54

Zn       3.82       5.89       6.98
Zn       6.78       6.21       7.52
H       6.92      10.27       7.20
H       3.68       1.83       7.30
H       2.63      10.09       7.19
H       7.97       2.02       7.30
H      -0.70       7.71       9.48
H      11.30       4.40       5.01
H       2.53       6.56       9.15
H       8.07       5.55       5.34
C       5.74       3.55       7.32
C       1.02       6.24       7.93
C      11.01       5.73       6.71
C      -0.41       6.38       7.79
C       5.59       6.11       4.59
C       5.02       6.00       9.91
C       5.78       6.19       3.16
C       4.83       5.91      11.33
C       5.88       6.30       1.94
C       4.73       5.80      12.55
C       5.97       6.43       0.61
C       4.86       8.56       7.18
C       4.63       5.68      13.88
C       4.79      10.05       7.19
C       5.81       2.05       7.30
C       7.13       0.03       7.24
C       3.47      12.08       7.25
C       7.07       1.41       7.29
C       3.53      10.70       7.21
C       4.64       1.31       7.29
C       5.96      10.79       7.21
C       4.67      -0.10       7.26
C       5.93      12.21       7.23
C      10.86       7.17       8.67
C      -0.25       4.94       5.82
C       9.50       7.23       8.47
C       1.11       4.88       6.03
C       9.58       5.87       6.57
I       9.03      12.13       7.19
I       1.57      -0.02       7.30
I       2.20       3.62       4.76
I       8.40       8.49       9.74
N       1.75       5.55       7.03
N       8.85       6.55       7.46
O       4.58       4.06       7.23
O       9.04       5.28       5.52
O       6.02       8.04       7.27
O       6.84       4.19       7.41
O       3.76       7.92       7.08
O       4.39       6.12       5.00
O       6.21       5.99       9.50
O       6.63       6.03       5.33
O       3.98       6.07       9.17
O       1.56       6.82       8.98
