110

Zn      -0.04       9.58       7.51
Zn       7.99      -1.60       9.81
Zn       6.38       0.01       7.51
Zn       1.57       7.97       9.81
Zn      -0.01       6.38       7.51
Zn       7.96       1.60       9.81
Zn       9.58      -0.01       7.51
Zn      -1.63       7.99       9.81
H       4.36      -0.56      15.09
H       3.58       8.54       2.22
H      -0.58       4.36      15.09
H       8.53       3.61       2.22
H      -4.37       0.56      15.09
H      12.32       7.41       2.22
H       0.58      -4.36      15.09
H       7.37      12.34       2.22
C      -0.03       7.98      12.26
C       5.45      -2.53       8.66
C       8.39       2.45       0.69
C      -5.53       0.42      16.62
C      13.48       7.56       0.69
C       0.44      -5.53      16.62
C       7.51      13.51       0.69
C       5.43       2.54       8.66
C       2.52       5.44       8.66
C      -2.55       5.44       8.66
C      10.50       2.53       8.66
C      10.53      -2.54       8.66
C      -2.58      10.52       8.66
C       2.50      10.51       8.66
C       7.98       0.00       5.05
C      -3.60      11.54       8.66
C      11.55      -3.56       8.66
C       4.43      -3.56       8.66
C       3.52      11.54       8.66
C       3.54       4.42       8.66
C       7.98      -0.00      12.26
C       4.40       3.56       8.66
C      11.52       3.56       8.66
C      -3.57       4.42       8.66
C      -0.03       7.98       5.05
C       9.14       0.32      14.47
C      -1.19       7.65       2.85
C       0.29       9.14      14.47
C       7.66      -1.16       2.85
C       6.82      -0.32      14.47
C       1.13       8.30       2.85
C      -0.35       6.82      14.47
C       8.30       1.16       2.85
C       7.98       0.00      13.77
C      -0.03       7.98       3.54
C      -0.03       7.98      13.77
C       7.98       0.00       3.54
C       6.75      -0.26      15.88
C       1.20       8.24       1.44
C      -0.29       6.75      15.88
C       8.24       1.23       1.44
C      -6.75       0.26      15.88
C      14.70       7.71       1.44
C       0.29      -6.75      15.88
C       7.66      14.72       1.44
C       7.98       0.00      16.60
C      -0.03       7.98       0.71
C      -0.03       7.98      16.60
C       7.98       0.00       0.71
C       5.53      -0.41      16.62
C       2.42       8.39       0.69
C      -0.44       5.53      16.62
Cl      -5.48       0.83      13.45
Cl      13.43       7.15       3.86
Cl       0.85      -5.48      13.45
Cl       7.10      13.45       3.86
Cl       5.48      -0.83      13.45
Cl       2.47       8.80       3.86
Cl      -0.85       5.48      13.45
Cl       8.80       2.50       3.86
O      -0.03       7.98       8.66
O       6.86       0.22       5.61
O       7.75       1.12      11.70
O       0.20       6.86       5.61
O      -1.15       8.20      11.70
O       9.10      -0.22       5.61
O       8.20      -1.12      11.70
O      -0.25       9.10       5.61
O       1.09       7.76      11.70
O       7.98      -0.00       8.66
O       2.57       9.65       9.60
O       5.38      -1.68       7.72
O       6.48       2.80       9.33
O       1.47       5.18       7.98
O      -2.62       6.30       9.60
O      10.57       1.68       7.72
O       9.48      -2.80       9.33
O      -1.53      10.78       7.98
O       5.17       1.49       7.98
O       2.78       6.49       9.33
O       1.64      10.58       7.72
O       6.31      -2.60       9.60
O      10.78      -1.49       7.98
O      -2.83       9.47       9.33
O      -1.70       5.38       7.72
O       9.65       2.60       9.60
O       4.29      -0.51      16.07
O       3.65       8.49       1.24
O      -0.53       4.29      16.07
O       8.48       3.68       1.24
O      -4.30       0.52      16.07
O      12.25       7.46       1.24
O       0.54      -4.29      16.07
O       7.41      12.27       1.24
