98

Zn       7.57       7.75       9.86
Zn       7.57      10.57       9.86
H      11.82      11.30       9.86
H       3.33       7.01       9.85
H       5.44       1.23       9.57
H       9.71      17.08      10.14
H       9.71       1.23      10.14
H       5.44      17.08       9.57
H      11.82       7.01       9.86
H       3.33      11.30       9.86
H      13.98       5.75       9.86
H       1.17      12.56       9.86
H       1.17       5.75       9.86
H      13.98      12.56       9.86
H       7.55      11.30      14.13
H       7.60       7.02       5.58
H       7.60      11.30       5.58
H       7.55       7.02      14.13
H       9.67       9.16      18.49
H       5.48       9.16       1.22
H       9.78       9.16       1.27
H       5.36       9.16      18.45
H       9.03       5.61      11.33
H       6.12      12.71       8.39
H       6.12       5.61       8.39
H       9.03      12.71      11.33
H       9.08       3.11      11.41
H       6.06      15.21       8.31
H       6.06       3.11       8.31
H       9.08      15.21      11.41
C       7.58       9.16       7.23
C       7.57       9.16      12.49
C       0.61       6.69       9.86
C      14.54      11.62       9.86
C       7.55      10.37      14.69
C       7.60       7.95       5.02
C       7.60      10.37       5.02
C       7.55       7.95      14.69
C       7.54      10.36      16.09
C       7.61       7.96       3.63
C       7.61      10.36       3.63
C       7.54       7.96      16.09
C       7.53       9.16      16.83
C       7.62       9.16       2.89
C       7.56       9.16      13.99
C       7.59       9.16       5.72
C       8.72       9.16      19.03
C       6.43       9.16       0.68
C       8.85       9.16       0.71
C       6.30       9.16      19.01
C       7.63       9.16       1.40
C       7.52       9.16      18.31
C       8.39       5.01      10.68
C       6.76      13.31       9.04
C       6.76       5.01       9.04
C       8.39      13.31      10.68
C       8.42       3.62      10.71
C       6.73      14.70       9.01
C       6.73       3.62       9.01
C       8.42      14.70      10.71
C       7.57       2.89       9.86
C       7.57      15.43       9.86
C       4.96       9.16       9.84
C      10.19       9.16       9.88
C       6.38       0.69       9.68
C       8.77      17.62      10.04
C       8.77       0.69      10.04
C       6.38      17.62       9.68
C       7.57      16.90       9.86
C       7.57       1.41       9.86
C      12.39      10.37       9.87
C       2.76       7.95       9.85
C      11.69       9.16       9.87
C       3.46       9.16       9.85
C      12.39       7.95       9.86
C       2.76      10.37       9.85
C      13.79       7.92       9.86
C       1.36      10.40       9.86
C      14.51       9.16       9.86
C       0.64       9.16       9.86
C      13.79      10.40       9.86
C       1.36       7.92       9.86
C      14.54       6.69       9.86
C       0.61      11.62       9.86
I       7.53      12.22      17.09
I       7.62       6.10       2.63
I       7.62      12.22       2.63
I       7.53       6.10      17.09
N       7.57       5.69       9.86
N       7.57      12.63       9.86
O       7.57       8.02       7.80
O       7.58      10.29      11.92
O       7.58       8.02      11.92
O       7.57      10.29       7.80
O       5.54       8.02       9.84
O       9.61      10.29       9.88
O       9.61       8.02       9.88
O       5.54      10.29       9.84
