42

Al       6.53       6.59       5.96
Al       3.11       6.56       5.98
H       4.81       7.28       4.37
H       8.22       5.19       7.03
H       2.67       2.51       5.95
H       6.98       2.55       6.04
H       6.13      10.63       5.93
H       6.28       5.55       1.55
H      10.53       9.62       6.02
H       7.47       7.46       9.38
H       7.66       8.60      10.75
H       7.68       6.84      11.04
C       8.24       6.19       3.59
C       8.26       9.00       5.94
C       4.84       7.01       8.32
C       4.82       4.17       6.03
C       8.28      10.48       5.97
C       4.83       2.68       6.00
C       9.50      11.20       6.01
C       3.61       1.96       5.97
C       6.05       2.00       6.02
C       7.06      11.19       5.95
C       5.76       7.64      10.67
C       7.33       5.54       1.27
C       4.77       7.34       9.75
C       8.34       5.84       2.17
C      10.65       7.84      11.97
C       5.19       7.92      11.93
C       7.22       7.64      10.43
S      10.04       7.40      10.42
S       3.08       5.75       1.48
O       7.09       6.28       4.12
O       9.41       8.41       5.99
O       3.71       6.81       7.76
O       5.95       4.76       6.09
O       5.98       6.93       7.75
O       3.67       4.74       6.00
O       9.37       6.39       4.17
O       7.14       8.40       5.86
O       4.81       7.11       5.32
O       8.24       6.05       6.58
O      10.71      10.60       6.03
