94

Zn       5.27       5.76       8.65
Zn       5.25       8.66       8.71
H       3.84      10.77       7.38
H       3.60      13.27       7.45
H       3.55       1.13       7.03
H       6.69       0.97       9.98
H       5.22       9.45       4.58
H       5.26       9.67       2.08
H       5.42       9.15      15.61
H       5.11       4.87      15.49
H       8.23       8.90       6.78
H       9.39      10.41       5.23
H       2.11       9.09       6.75
H       0.81      10.50       5.21
H       7.34       9.73      10.04
H       7.35      10.99      11.23
H       6.96      14.46      10.48
H       7.90      13.03      10.67
H       3.16       4.76       7.42
H       2.68       3.33       6.54
H       6.42       4.52      10.67
H       7.21       3.03      11.02
H       5.31       4.82       5.31
H       5.78       4.17       3.78
H       5.16       5.30       0.61
H       4.70       4.34       1.95
H       5.16       9.55      12.03
H       5.17      10.32      13.60
H       4.78       4.66      11.94
H       4.67       3.86      13.47
H       2.09       5.37      10.01
H       0.58       4.67      10.42
H       8.54       5.21      10.03
H       9.79       5.41      11.18
C       5.27       7.26       6.06
C       2.62       7.36       8.62
C       5.22       7.13      11.37
C       7.89       7.17       8.68
C       4.47      11.39       8.01
C       4.33      12.75       8.05
C       5.18      13.49       8.91
C       6.13      12.81       9.70
C       6.21      11.38       9.58
C       4.24       1.64       7.70
C       5.14       0.90       8.46
C       6.01       1.54       9.35
C       5.94       2.93       9.46
C       4.22       3.04       7.85
C       5.23       7.30       4.57
C       5.23       8.58       3.94
C       5.26       8.70       2.57
C       5.26       7.54       1.76
C       5.25       6.26       2.36
C       5.25       6.13       3.79
C       5.35       8.23      15.02
C       5.27       7.01      15.68
C       5.17       5.82      14.96
C       5.15       5.84      13.56
C       5.24       7.08      12.85
C       5.33       8.29      13.62
C       9.38       7.20       8.58
C      10.04       8.13       7.70
C      10.11       6.33       9.38
C       9.31       8.95       6.79
C       9.97       9.80       5.92
C       1.13       7.32       8.58
C       0.47       6.39       9.38
C       0.39       8.19       7.70
C       1.03       9.06       6.78
C       0.30       9.85       5.91
N       5.38      10.71       8.77
N       5.23      14.88       9.02
N       5.06      -0.51       8.31
N       5.09       3.68       8.69
N       5.24       7.52       0.37
N       5.30       7.08      17.09
N       7.19      10.72      10.27
N       6.98      13.45      10.57
N       3.34       3.79       7.15
N       6.75       3.61      10.33
N       5.22       4.85       4.30
N       5.28       5.10       1.60
N       5.43       9.53      13.02
N       5.06       4.62      12.91
N       1.11       5.52      10.24
N       9.54       5.34      10.19
O       5.23       6.12       6.63
O       5.34       8.37       6.68
O       3.21       8.48       8.63
O       3.24       6.23       8.67
O       5.13       8.26      10.77
O       5.29       6.02      10.71
O       7.31       6.04       8.60
O       7.28       8.28       8.87
