116

Zn       5.35      10.90      17.31
Zn       2.65      10.92      17.45
Zn       2.05      10.86       0.04
Zn       5.90      10.97      34.62
H       4.87      10.04       4.09
H       4.94      10.02       6.54
H       1.18       1.27       6.66
H       1.04       1.11       4.19
H       6.19       1.28      10.69
H       2.45      10.04      10.83
H       2.53      10.08      13.27
H       6.32       1.14      13.16
H       5.53       1.30      30.57
H       5.44       1.41      28.11
H       1.95       9.80      28.12
H       1.96       9.84      30.61
H       6.60       9.77      23.96
H       3.08       1.39      23.95
H       3.00       1.26      21.49
H       6.59       9.79      21.48
C       3.34       2.52      17.34
C       4.46       0.08      14.85
C       3.37       8.39      17.33
C       4.69      10.92      19.85
C       4.04       2.48       0.02
C       2.91       0.04       2.50
C       4.03       8.34       0.03
C       3.86      10.97      32.22
C       2.95       0.12       3.99
C       4.07      10.51       4.66
C       4.12      10.53       6.05
C       3.09       0.24       6.79
C       1.98       0.78       6.11
C       1.90       0.71       4.72
C       3.15       0.31       8.26
C       4.21       0.31       9.10
C       5.38       0.80      11.24
C       4.27       0.25      10.56
C       3.27      10.55      11.31
C       3.33      10.54      12.70
C       4.42       0.15      13.37
C       5.46       0.73      12.63
C       3.77      11.01      30.74
C       4.74       0.77      30.02
C       4.71       0.81      28.64
C       3.72       0.09      27.93
C       2.73      10.34      28.65
C       2.74      10.36      30.04
C       3.76      10.96      26.47
C       4.80      10.96      25.61
C       5.82      10.31      23.43
C       4.80       0.07      24.14
C       3.81       0.79      23.43
C       3.78       0.74      22.04
C       4.78      10.96      21.34
C       5.81      10.32      22.03
C       3.27       4.03      17.25
C       3.12       4.73      16.02
C       3.41       4.75      18.41
C       2.97       4.07      14.78
C       2.83       4.75      13.59
C       3.28       6.88      17.25
C       3.42       6.16      18.41
C       3.12       6.17      16.02
C       2.98       6.84      14.78
C       2.83       6.16      13.59
C       4.12       3.98       0.11
C       4.27       4.69       1.34
C       5.13       4.81      33.66
C       4.41       4.02       2.58
C       4.55       4.71       3.77
C       4.12       6.84       0.11
C       5.12       6.22      33.66
C       4.27       6.13       1.34
C       4.42       6.79       2.58
C       4.55       6.11       3.77
N       1.81       0.32       8.91
N       5.54       0.34       8.45
N       2.41      10.94      25.84
N       6.15      10.94      26.24
O       4.49       2.01      17.35
O       2.22       1.90      17.43
O       3.38      10.91      15.48
O       5.62       0.10      15.42
O       2.26       9.02      17.45
O       4.52       8.89      17.31
O       5.79      10.84      19.18
O       3.53      10.97      19.34
O       2.89       1.97       0.01
O       6.30       1.95      34.64
O       4.02      10.87       1.88
O       1.74       0.07       1.93
O       6.29       9.07      34.62
O       2.88       8.85       0.05
O       2.76      10.90      32.89
O       5.00       0.09      32.74
O       1.27      10.15       8.97
O       1.38       1.40       9.32
O       6.14      10.17       8.38
O       5.97       1.42       8.02
O       1.83       1.11      25.77
O       1.97       9.86      25.44
O       6.70       1.11      26.30
O       6.58       9.85      26.64
F       3.58       6.80      19.60
F       3.56       4.11      19.60
F       2.98       8.19      14.74
F       2.70       6.82      12.43
F       2.70       4.09      12.42
F       2.97       2.72      14.73
F       4.97       6.85      32.48
F       4.98       4.17      32.47
F       4.42       8.14       2.62
F       4.69       6.78       4.93
F       4.68       4.04       4.94
F       4.41       2.67       2.63
