128

Al      -0.60       6.59      10.98
Al       4.87      14.43       0.04
Al       2.72       6.59      10.98
Al       1.55      14.44       0.03
H       3.10       3.94      14.18
H       1.17      17.06       3.25
H       4.41      17.91      20.01
H      -0.15       3.09       9.10
H       1.98      17.53      19.19
H       2.28       3.46       8.28
H       2.81       0.58      17.02
H       1.45      20.40       6.13
H       5.69       1.07      14.40
H      -1.42      19.94       3.50
H       4.27      19.86      18.47
H      -0.02       1.12       7.58
H       5.67       3.15      13.04
H      -1.41      17.89       2.10
H       3.13       1.91      15.58
H       1.14      19.07       4.68
H       1.85      19.46      17.60
H       2.41       1.52       6.71
H       0.61      14.18      15.22
H       3.53       6.85       4.29
H       1.20      13.21      13.12
H       2.97       7.83       2.19
H       0.58       8.66      14.96
H       3.71      12.37       4.03
H      -0.52      10.34      20.69
H       4.84      10.66       9.74
H       0.25       8.34      19.47
H       4.11      12.68       8.53
H       4.38       7.40      12.52
H      -0.11      13.65       1.58
H       1.07       7.02       9.30
H       3.19      13.98      20.24
C       4.33       4.61       9.63
C      -0.07      16.40      20.55
C       4.42       8.20       9.13
C      -0.17      12.81      20.08
C       1.08       8.58      12.40
C       3.18      12.46       1.46
C       1.04       4.89      12.67
C       3.23      16.14       1.72
C       1.06       3.68      13.54
C       3.21      17.34       2.60
C       2.21       3.32      14.26
C       2.06      17.69       3.33
C       2.22       2.17      15.04
C       2.05      18.82       4.13
C       1.08       1.34      15.12
C       3.19      19.66       4.22
C      -0.06       1.71      14.38
C       4.32      19.31       3.46
C      -0.07       2.87      13.61
C       4.34      18.16       2.68
C      -1.41      19.34      18.60
C       5.67       1.65       7.71
C      -1.34      18.26      19.47
C       5.59       2.74       8.57
C       1.04      18.06      19.02
C       3.22       2.94       8.11
C       0.96      19.13      18.14
C       3.30       1.86       7.24
C      -0.27      19.77      17.89
C       4.53       1.21       7.00
C       1.07       0.15      15.99
C       3.19      20.85       5.10
C      -0.33      20.89      16.95
C       4.59       0.10       6.06
C      -0.12      17.60      19.67
C       4.37       3.40       8.77
C       1.14      12.21      13.53
C       3.06       8.83       2.60
C       1.04       9.81      13.25
C       3.21      11.23       2.31
C      -0.21      10.43      19.65
C       4.51      10.57       8.71
C       0.21       9.29      18.96
C       4.11      11.72       8.02
C       0.68       9.41      17.66
C       3.62      11.62       6.73
C       0.58      10.63      16.93
C       3.68      10.40       6.00
C       0.22      11.81      17.70
C       4.01       9.20       6.76
C       0.79      10.76      15.50
C       3.45      10.28       4.56
C       0.90      12.05      14.91
C       3.30       8.98       3.98
C       0.61      13.20      15.70
C       3.56       7.83       4.77
C       0.21      13.08      17.00
C       3.98       7.94       6.06
C       0.79       9.66      14.60
C       3.47      11.37       3.67
C       1.24      11.10      12.71
C       3.00       9.94       1.78
C      -0.10      11.69      19.08
C       4.36       9.32       8.13
I       1.51      11.37      10.64
I       2.75       9.66      21.59
I       1.81       7.70      17.05
I       2.55      13.37       6.13
Br      -0.50      14.66      17.78
Br       4.66       6.34       6.83
Br       3.98      19.90      15.64
Br       0.28       1.10       4.76
O       3.30       7.69       9.47
O       0.95      13.33      20.40
O       5.44       5.19       9.86
O      -1.18      15.82      20.78
O      -0.10       5.24      12.21
O       4.36      15.80       1.26
O       5.55       7.95       9.66
O      -1.30      13.05      20.62
O      -0.03       7.99      12.21
O       4.30      13.05       1.28
O       3.19       5.00      10.05
O       1.07      16.01      20.98
O       4.37       6.75      11.80
O      -0.10      14.28       0.85
O       2.22       8.21      11.97
O       2.05      12.83       1.03
O       2.14       5.48      12.43
O       2.13      15.55       1.48
O       1.06       6.57      10.16
O       3.20      14.44      21.09
