432

Pr       9.26       1.84      30.22
Pr       4.64      19.09      15.01
Pr       0.00      12.31      15.41
Pr       4.63       8.62       0.20
Pr       4.38       2.22      30.28
Pr       0.25      18.71      15.07
Pr       4.88      12.68      15.34
Pr       9.01       8.25       0.13
Cu       4.89       7.71      22.35
Cu       9.00      13.21       7.15
Cu       4.37      18.18      23.27
Cu       0.26       2.75       8.06
Cu       2.73       6.15      22.60
Cu       1.90      14.78       7.39
Cu       6.53      16.61      23.03
Cu       7.36       4.31       7.82
Cu       2.49       5.27      20.21
Cu       2.14      15.66       5.00
Cu       6.78      15.73      25.41
Cu       7.12       5.20      10.20
Cu       2.11       3.67      22.05
Cu       2.52      17.26       6.84
Cu       7.16      14.13      23.58
Cu       6.74       6.80       8.37
Cu       0.21       1.89      22.26
Cu       4.42      19.04       7.05
Cu       9.05      12.36      23.37
Cu       4.85       8.57       8.16
H       9.17       3.31      27.08
H       4.73      17.62      11.87
H       0.10      13.78      18.54
H       4.54       7.15       3.33
H       0.96       3.05      24.81
H       3.68      17.88       9.60
H       8.31      13.51      20.82
H       5.59       7.42       5.61
H       6.70       1.52      23.23
H       7.20      19.41       8.03
H       2.57      11.99      22.39
H       2.07       8.94       7.18
H       5.52       1.75      25.42
H       8.38      19.18      10.21
H       3.74      12.21      20.21
H       0.89       8.72       5.00
H       8.60      19.86      27.76
H       5.30       1.07      12.55
H       0.66       9.39      17.87
H       3.97      11.53       2.66
H       8.57      17.98      26.06
H       5.32       2.95      10.85
H       0.69       7.51      19.57
H       3.94      13.41       4.36
H       4.83      16.74      27.31
H       9.07       4.19      12.10
H       4.44       6.27      18.32
H       0.20      14.66       3.11
H       4.67      18.61      28.98
H       9.23       2.32      13.78
H       4.60       8.15      16.64
H       0.04      12.78       1.43
H       7.93      19.97       3.55
H       5.97       0.96      18.76
H       1.34       9.50      11.66
H       3.30      11.43      26.87
H       6.81      18.70       5.40
H       7.09       2.23      20.61
H       2.45       8.24       9.81
H       2.18      12.69      25.02
H       3.58       0.38       5.40
H       1.05      20.55      20.61
H       5.68      10.84       9.81
H       8.22      10.08      25.02
H       4.56       1.72       3.51
H       0.07      19.21      18.71
H       4.70      12.18      11.70
H       9.20       8.75      26.91
H       4.03       3.47      26.75
H       0.60      17.46      11.54
H       5.23      13.94      18.88
H       8.67       6.99       3.67
H       4.23       4.30      24.38
H       0.40      16.63       9.17
H       5.03      14.77      21.25
H       8.87       6.16       6.04
H       0.98       6.82      24.83
H       3.65      14.10       9.62
H       8.28      17.29      20.80
H       5.62       3.64       5.59
H       0.57       6.02      27.18
H       4.07      14.91      11.97
H       8.70      16.49      18.45
H       5.20       4.44       3.24
H       7.77       5.72      26.08
H       6.13      15.21      10.87
H       1.50      16.19      19.54
H       3.13       4.74       4.34
H       6.85       5.90      23.77
H       7.05      15.03       8.56
H       2.42      16.37      21.86
H       2.21       4.56       6.65
H       4.43       9.10      24.83
H       0.21      11.83       9.62
H       4.84      19.56      20.80
H       9.06       1.37       5.59
H       5.20       9.01      27.20
H       8.70      11.92      11.99
H       4.07      19.48      18.43
H       0.56       1.45       3.22
H       8.68       9.83      19.72
H       5.22      11.10       4.51
H       0.58      20.29      25.91
H       4.05       0.64      10.70
H       7.64       8.39      21.47
H       6.26      12.54       6.26
H       1.62      18.85      24.16
H       3.01       2.08       8.95
H       3.82       9.35      20.19
H       0.81      11.58       4.98
H       5.45      19.82      25.43
H       8.45       1.11      10.23
H       4.72      10.78      18.33
H       9.18      10.15       3.12
H       4.55       0.31      27.30
H       0.09      20.62      12.09
H       4.44       1.66      17.20
H       0.20      19.27       1.99
H       4.83      12.12      28.43
H       9.07       8.81      13.22
H       4.46       3.56      18.88
H       0.17      17.37       3.67
H       4.81      14.02      26.74
H       9.09       6.91      11.53
H       0.33       3.58      19.09
H       4.30      17.34       3.88
H       8.94      14.05      26.54
H       4.96       6.88      11.33
H       0.15       1.63      17.50
H       4.48      19.30       2.29
H       9.11      12.09      28.13
H       4.78       8.84      12.92
H       8.36       4.73       1.15
H       5.54      16.20      16.36
H       0.91      15.19      14.06
H       3.73       5.73      29.26
H       7.43       3.44       1.36
H       6.47      17.49      16.57
H       1.84      13.91      13.85
H       2.79       7.02      29.06
H       6.58       4.30      29.79
H       7.32      16.63      14.58
H       2.69      14.76      15.83
H       1.94       6.17       0.63
H       5.61       5.25       0.24
H       8.29      15.67      15.45
H       3.65      15.72      14.97
H       0.98       5.21      30.17
C       6.68       2.59      27.82
C       7.22      18.34      12.61
C       2.58      13.06      17.81
C       2.05       7.87       2.60
C       7.28       2.53      26.43
C       6.62      18.40      11.22
C       1.99      12.99      19.19
C       2.64       7.94       3.98
C       8.60       2.92      26.24
C       5.30      18.01      11.03
C       0.66      13.38      19.38
C       3.97       7.54       4.18
C       9.18       2.78      24.99
C       4.72      18.15       9.78
C       0.08      13.24      20.63
C       4.55       7.69       5.43
C       7.22       1.93      24.10
C       6.68      19.00       8.90
C       2.05      12.39      21.52
C       2.58       8.54       6.31
C       6.56       2.05      25.33
C       7.34      18.88      10.12
C       2.70      12.51      20.30
C       1.93       8.42       5.09
C       6.59      20.55      29.41
C       7.31       0.38      14.20
C       2.68      10.09      16.22
C       1.96      10.84       1.01
C       6.64      19.36      28.49
C       7.26       1.57      13.28
C       2.63       8.89      17.13
C       2.01      12.03       1.92
C       7.76      19.17      27.68
C       6.14       1.75      12.47
C       1.51       8.71      17.95
C       3.12      12.22       2.74
C       7.75      18.14      26.75
C       6.15       2.79      11.54
C       1.52       7.68      18.88
C       3.11      13.25       3.67
C       5.65      17.45      27.45
C       8.25       3.48      12.24
C       3.62       6.98      18.18
C       1.01      13.95       2.97
C       5.56      18.48      28.38
C       8.34       2.45      13.17
C       3.70       8.01      17.25
C       0.93      12.92       2.04
C       6.94       1.21       2.22
C       6.96      19.72      17.43
C       2.33      11.68      12.99
C       2.31       9.25      28.20
C       6.32       0.47       3.37
C       7.58      20.46      18.58
C       2.95      10.93      11.84
C       1.69      10.00      27.05
C       6.96      20.28       3.93
C       6.94       0.65      19.14
C       2.31       9.82      11.28
C       2.33      11.11      26.49
C       6.35      19.59       4.96
C       7.55       1.34      20.17
C       2.92       9.12      10.25
C       1.71      11.81      25.46
C       4.55       0.12       4.96
C       0.09      20.81      20.17
C       4.72      10.58      10.25
C       9.18      10.35      25.46
C       5.09       0.85       3.91
C       8.81      20.07      19.12
C       4.18      11.32      11.30
C       0.46       9.61      26.51
C       2.09       4.15      28.52
C       2.55      16.78      13.31
C       7.18      14.61      17.11
C       6.72       6.32       1.90
C       2.26       4.66      27.12
C       2.38      16.27      11.91
C       7.01      15.12      18.51
C       6.89       5.80       3.30
C       3.32       4.20      26.34
C       1.31      16.73      11.13
C       5.94      14.66      19.28
C       7.96       6.27       4.08
C       3.45       4.66      25.04
C       1.19      16.27       9.83
C       5.82      15.13      20.59
C       8.08       5.80       5.38
C       1.61       6.06      25.29
C       3.02      14.87      10.08
C       7.66      16.52      20.34
C       6.24       4.41       5.13
C       1.39       5.62      26.59
C       3.25      15.31      11.38
C       7.88      16.08      19.04
C       6.02       4.85       3.83
C       7.12       7.35      28.23
C       6.77      13.58      13.02
C       2.14      17.82      17.39
C       2.49       3.11       2.19
C       6.56       7.36      26.84
C       7.34      13.57      11.63
C       2.70      17.83      18.79
C       1.93       3.10       3.58
C       7.02       6.48      25.85
C       6.87      14.45      10.64
C       2.24      16.95      19.78
C       2.39       3.98       4.57
C       6.52       6.58      24.56
C       7.38      14.35       9.35
C       2.75      17.05      21.07
C       1.89       3.88       5.86
C       5.17       8.37      25.15
C       8.73      12.56       9.94
C       4.10      18.83      20.48
C       0.54       2.10       5.27
C       5.61       8.32      26.47
C       8.29      12.61      11.26
C       3.66      18.78      19.16
C       0.98       2.15       3.95
C       7.34      11.22      17.73
C       6.56       9.71       2.52
C       1.93       0.75      27.90
C       2.70      20.18      12.69
C       6.77      10.39      18.86
C       7.13      10.53       3.65
C       2.49      20.86      26.77
C       2.14       0.07      11.56
C       7.60       9.72      19.77
C       6.30      11.21       4.56
C       1.67      20.19      25.86
C       2.97       0.74      10.65
C       7.02       8.93      20.75
C       6.88      12.00       5.54
C       2.24      19.39      24.87
C       2.39       1.54       9.66
C       4.89       9.47      20.03
C       9.01      11.46       4.82
C       4.37      19.93      25.60
C       0.26       1.00      10.39
C       5.39      10.26      19.01
C       8.51      10.67       3.80
C       3.87      20.73      26.62
C       0.76       0.20      11.41
C       2.25       0.30      16.36
C       2.38      20.63       1.15
C       7.01      10.76      29.27
C       6.89      10.17      14.06
C       2.29       1.50      17.25
C       2.34      19.42       2.04
C       6.97      11.97      28.38
C       6.92       8.96      13.17
C       3.52       2.07      17.62
C       1.12      18.86       2.41
C       5.75      12.53      28.01
C       8.15       8.40      12.80
C       3.53       3.11      18.52
C       1.10      17.81       3.31
C       5.74      13.58      27.10
C       8.16       7.35      11.90
C       1.21       3.13      18.65
C       3.42      17.80       3.44
C       8.05      13.59      26.98
C       5.85       7.34      11.77
C       1.12       2.05      17.77
C       3.51      18.88       2.56
C       8.15      12.52      27.86
C       5.75       8.41      12.65
I       4.86       5.08      21.46
I       9.04      15.85       6.25
I       4.41      15.54      24.17
I       0.22       5.39       8.96
I       2.33       8.72      22.56
I       2.30      12.21       7.35
I       6.93      19.18      23.06
I       6.97       1.75       7.85
I       0.15       5.19      21.63
I       4.49      15.74       6.42
I       9.12      15.65      24.00
I       4.78       5.28       8.79
I       2.81       1.38      22.61
I       1.82      19.55       7.41
I       6.45      11.84      23.01
I       7.44       9.09       7.80
N       8.52       2.26      23.93
N       5.38      18.67       8.72
N       0.75      12.73      21.69
N       3.88       8.20       6.48
N       6.71      17.29      26.63
N       7.19       3.64      11.43
N       2.55       6.82      18.99
N       2.08      14.11       3.78
N       5.15      19.95       5.48
N       8.75       0.98      20.69
N       4.12       9.49       9.73
N       0.52      11.44      24.94
N       2.60       5.57      24.51
N       2.03      15.36       9.31
N       6.66      16.04      21.11
N       7.24       4.89       5.90
N       5.61       7.52      24.20
N       8.29      13.41       8.99
N       3.66      17.98      21.43
N       0.97       2.95       6.22
N       5.68       8.79      20.89
N       8.22      12.14       5.68
N       3.58      19.25      24.74
N       1.05       1.67       9.53
N       2.40       3.64      19.04
N       2.24      17.29       3.83
N       6.87      14.10      26.59
N       7.03       6.83      11.38
O       7.47       2.84      28.79
O       6.43      18.08      13.58
O       1.79      13.31      16.84
O       2.84       7.62       1.63
O       5.44       2.39      27.95
O       8.46      18.54      12.74
O       3.83      12.86      17.67
O       0.81       8.07       2.46
O       7.71       0.10      29.76
O       6.19      20.83      14.55
O       1.56      10.56      15.87
O       3.07      10.37       0.66
O       5.45       0.07      29.71
O       8.45      20.86      14.51
O       3.82      10.54      15.91
O       0.81      10.39       0.70
O       8.16       0.98       1.95
O       5.74      19.95      17.16
O       1.11      11.45      13.26
O       3.52       9.48      28.46
O       6.21       2.05       1.57
O       7.69      18.88      16.78
O       3.06      12.51      13.64
O       1.58       8.42      28.84
O       8.34       3.74       1.14
O       5.55      17.19      16.35
O       0.92      14.21      14.06
O       3.71       6.72      29.27
O       0.91       3.87      28.93
O       3.72      17.06      13.72
O       8.35      14.34      16.70
O       5.55       6.59       1.49
O       3.14       4.08      29.23
O       1.50      16.85      14.02
O       6.13      14.54      16.40
O       7.77       6.38       1.19
O       5.68       4.40      30.18
O       8.22      16.53      14.97
O       3.58      14.87      15.45
O       1.05       6.06       0.24
O       6.42       7.81      29.19
O       7.48      13.11      13.98
O       2.84      18.28      16.44
O       1.79       2.65       1.23
O       8.32       6.96      28.40
O       5.58      13.97      13.19
O       0.94      17.43      17.22
O       3.69       3.50       2.02
O       8.60      11.29      17.62
O       5.30       9.64       2.41
O       0.67       0.83      28.01
O       3.97      20.10      12.80
O       6.53      11.79      16.93
O       7.37       9.14       1.72
O       2.74       1.33      28.70
O       1.90      19.60      13.49
O       3.30       0.06      15.68
O       1.33      20.87       0.48
O       5.96      10.53      29.94
O       7.94      10.40      14.73
O       1.19      20.54      16.38
O       3.45       0.38       1.17
O       8.08      10.08      29.24
O       5.82      10.85      14.04
