48

Zn       3.38       5.50       5.49
Zn       6.20       5.53       5.53
H       7.07       9.78       5.51
H       7.17       1.26       5.67
H       6.54       6.24       1.33
H       6.43       6.38       9.84
H       1.22       4.79       7.46
H       1.21       6.20       3.53
C       4.59       5.29       2.91
C       4.55       5.60       8.10
C       9.09       5.13       6.57
C       9.08       5.95       4.46
C       0.64       5.10       6.59
C       0.64       5.91       4.41
C       4.97       8.09       5.36
C       5.06       2.95       5.68
C       3.75      10.33       5.44
C       3.86       0.71       5.54
C       4.94       9.58       5.42
C       5.04       1.46       5.62
C       6.12      10.33       5.51
C       6.23       0.72       5.61
C       2.36       0.83       5.52
C       2.26      10.21       5.36
C       5.71       5.85       0.73
C       5.60       5.93      10.37
C       4.52       5.45       9.60
C       4.62       5.28       1.41
C       3.46       4.84      10.27
C       3.57       4.77       0.64
Br       1.59       1.51       7.19
Br       1.60       9.53       3.64
Br       1.61       1.86       4.03
Br       1.40       9.19       6.79
N       1.30       5.49       5.49
N       8.38       5.55       5.52
O       3.45       5.35       3.46
O       3.42       5.65       7.51
O       5.71       5.29       3.51
O       5.69       5.67       7.55
O       3.85       7.50       5.31
O       3.93       3.53       5.68
O       6.12       7.54       5.37
O       6.20       3.51       5.70
F       2.41       4.29       9.61
F       2.51       4.14       1.21
F       8.40       4.72       7.63
F       8.39       6.40       3.41
