104

Zn       5.73      11.55       0.44
Zn       8.33       5.01      13.85
H       6.97       9.40       0.76
H       7.09       7.15      13.53
H       8.38      14.89      14.29
H       5.68       1.66       0.00
H       4.35       9.05       3.64
H       9.71       7.51      10.65
H       3.23       7.44       5.20
H      10.83       9.11       9.09
H       8.61       8.05       3.15
H       5.45       8.50      11.15
H       9.70       9.74       1.67
H       4.36       6.81      12.62
H      10.15       9.61       5.68
H       3.91       6.94       8.62
H       9.66      11.57       7.08
H       4.40       4.98       7.21
H       8.38      11.33       9.19
H       5.68       5.22       5.10
H       7.56       9.08       9.92
H       6.50       7.47       4.37
H       7.09       6.57      10.33
H       6.97       9.98       3.96
H       6.90       4.10      10.28
H       7.16      12.45       4.01
H       7.79       2.81       8.36
H       6.27      13.75       5.93
H       8.89       3.95       6.46
H       5.17      12.60       7.83
H       2.67       4.83       4.54
H      11.39      11.72       9.76
H       2.47       2.78       3.12
H      11.59      13.77      11.17
H       7.36       3.47       2.67
H       6.70      13.08      11.62
H       7.54       5.48       4.15
H       6.52      11.07      10.15
C      12.32      10.43       1.62
C       1.74       6.13      12.67
C      11.65       9.47       2.55
C       2.41       7.08      11.74
C       3.29       8.82       3.54
C      10.77       7.73      10.75
C       2.67       7.92       4.41
C      11.39       8.63       9.88
C      10.40       7.63       4.27
C       3.66       8.92      10.03
C       9.67       8.27       3.26
C       4.39       8.28      11.03
C      10.28       9.21       2.43
C       3.78       7.34      11.87
C       9.76       6.60       5.13
C       4.30       9.95       9.16
C       9.24       6.88       6.36
C       4.82       9.67       7.94
C       9.14       8.21       6.99
C       4.92       8.34       7.30
C       9.59       9.48       6.59
C       4.47       7.07       7.70
C       9.31      10.59       7.40
C       4.75       5.96       6.90
C       8.59      10.45       8.58
C       5.47       6.10       5.71
C       8.13       9.19       8.99
C       5.93       7.36       5.30
C       8.41       8.08       8.20
C       5.65       8.47       6.09
C       8.10       6.66       8.41
C       5.96       9.89       5.88
C       7.47       6.01       9.47
C       6.59      10.54       4.82
C       7.36       4.62       9.44
C       6.70      11.93       4.85
C       7.87       3.89       8.36
C       6.19      12.66       5.93
C       8.49       4.54       7.29
C       5.57      12.01       7.01
C       8.61       5.93       7.30
C       5.45      10.62       6.99
C       9.66       5.29       4.43
C       4.40      11.26       9.86
C       1.70       4.52       4.14
C      12.36      12.03      10.15
C       1.59       3.38       3.35
C      12.47      13.17      10.94
C       9.46       3.01       2.80
C       4.60      13.54      11.49
C       8.32       3.77       3.10
C       5.74      12.78      11.20
C       8.42       4.89       3.91
C       5.64      11.66      10.38
C       9.36       1.85       1.86
C       4.70      14.70      12.43
O       4.49      10.41       1.59
O       9.57       6.14      12.70
O      11.57      11.18       0.91
O       2.49       5.37      13.38
O       8.30       1.76       1.16
O       5.76      14.80      13.13
O       1.26       1.05       1.80
O      12.80      15.50      12.49
O       7.40      10.28       0.80
O       6.66       6.27      13.49
