80

Zn       8.70       9.35       8.65
Zn       8.46       6.51       8.47
H       4.19       6.50       7.64
H       9.04       6.02       1.80
H       8.99      10.32       1.85
H       8.98       5.52      15.24
H       8.82      10.29       4.37
H       8.57       5.60      12.75
H      10.23      11.31       7.00
H       6.90       4.55      10.09
H       5.48      10.33       9.55
H      11.69       5.50       7.58
H       1.33       4.74       6.68
H      12.98       9.35       9.44
H      15.84      11.11      10.42
H      10.97      14.83       7.08
H       6.21       1.02      10.03
H       8.82       1.84       6.45
H       8.41      14.03      10.69
H       9.19       4.33       6.63
H       8.01      11.54      10.51
H       9.70       9.74      12.72
H       8.87       6.00       4.31
H      10.13       9.66      15.20
C       8.68       8.09       5.97
C       8.90       6.48      13.30
C       7.31       3.92       9.30
C       9.85      11.94       7.81
C       7.03       2.55       9.29
C      10.14      13.31       7.83
C       7.59       1.76       8.23
C       9.60      14.10       8.89
C       8.38       2.42       7.27
C       8.82      13.45       9.87
C       8.60       3.78       7.36
C       8.78       7.79      11.14
C       8.59      12.09       9.77
C      11.22       7.56       8.48
C       5.95       8.28       8.63
C       4.46       8.35       8.67
C      12.71       7.49       8.42
C      14.73       6.36       7.64
C       2.44       9.49       9.44
C      13.34       6.39       7.79
C       3.83       9.46       9.31
C      13.48       8.52       8.96
C       8.99       6.95       2.37
C       3.69       7.34       8.13
C      14.88       8.47       8.88
C       2.28       7.38       8.20
C       8.82       8.14       4.48
C       9.08       7.69      12.60
C       8.90       6.94       3.76
C       9.54       8.83      13.29
C       9.78       8.78      14.65
C       9.00       8.18       1.69
C       9.55       7.59      15.36
C       8.97       9.38       2.41
C       9.14       6.44      14.67
C       8.87       9.37       3.80
N       8.99       8.31       0.28
N       9.66       7.45      16.76
N       8.07       4.51       8.37
N       9.09      11.36       8.75
N       7.41       0.40       8.10
N       9.79      15.46       9.02
O       8.66       9.19       6.61
O      12.64       5.34       7.27
O       2.05       5.33       6.98
O      15.11      10.53      10.11
O      10.90      13.84       6.86
O       6.26       2.02      10.25
O       8.62       6.70      10.49
O       8.57       6.93       6.48
O       8.72       8.96      10.65
O      10.68       8.68       8.67
O       6.48       7.15       8.42
O      10.59       6.44       8.32
O       6.59       9.38       8.81
O       4.53      10.50       9.84
