112

Zn       5.78       5.45      13.88
Zn       3.12       5.39      14.05
H       2.15       5.97       9.97
H       6.74       4.86      17.96
H       4.10       8.78       3.49
H       4.79       2.05      24.44
H       3.02       5.82      21.03
H       5.87       5.01       6.90
H       4.21       8.69      26.95
H       4.69       2.14       0.97
H       2.24       9.63      13.74
H       6.66       1.20      14.20
H       2.41       1.12      13.67
H       6.49       9.71      14.26
H       0.90       3.96      15.50
H       7.99       6.88      12.43
H       1.06       6.85      12.53
H       7.84       3.99      15.39
H       1.47       6.70       6.57
H       0.80       6.44       8.08
H       8.08       4.39      19.85
H       7.41       4.12      21.36
H       2.13       6.71      17.77
H       1.72       5.02      18.01
H       1.54       6.17      19.37
H       6.76       4.12      10.15
H       7.36       4.68       8.56
H       7.16       5.81       9.93
H       4.02       9.28      23.67
H       4.60       9.94      25.24
H       5.73       9.37      23.98
H       4.87       1.55       4.26
H       3.16       1.46       3.95
H       4.29       0.88       2.69
H       5.24       9.83       1.89
H       5.74       9.22       0.39
H       3.15       1.61      27.53
H       3.65       1.00      26.04
C       4.40       8.04      14.02
C       4.50       2.79      13.91
C       4.33       5.49      11.32
C       4.56       5.34      16.61
C       3.58       6.71       4.95
C       5.31       4.12      22.98
C       3.76       4.22       4.98
C       5.13       6.60      22.95
C       5.06       5.23       7.59
C       3.83       5.60      20.34
C       5.32       5.22       8.96
C       3.57       5.61      18.97
C       2.96       5.77       9.27
C       5.93       5.06      18.65
C       2.72       5.82       7.89
C       6.17       5.01      20.03
C       3.81       5.51       7.06
C       5.08       5.31      20.87
C       4.06       5.45       2.80
C       4.83       5.38      25.12
C       3.90       6.67       3.51
C       4.99       4.16      24.42
C       4.17       7.87       2.89
C       4.72       2.96      25.04
C       3.96       4.22       3.51
C       4.93       6.61      24.41
C       4.22       5.48       9.82
C       4.67       5.35      18.11
C       4.41       6.56      27.23
C       4.47       4.27       0.69
C       4.32       4.06      27.18
C       4.57       6.77       0.74
C       4.54       5.32      26.53
C       4.35       5.51       1.40
C       4.46       7.74      26.48
C       4.43       3.08       1.45
C       4.73       7.81      25.10
C       4.16       3.01       2.83
C       4.61       7.94       1.55
C       4.28       2.89      26.38
C       3.15      10.21      13.84
C       5.74       0.62      14.10
C       3.34       0.57      13.80
C       5.56      10.26      14.13
C       4.53       1.30      13.93
C       4.37       9.53      14.00
C       0.35       4.60      14.82
C       8.55       6.23      13.11
C       0.43       6.22      13.17
C       8.46       4.62      14.76
C       2.16       5.90      18.51
C       6.73       4.94       9.42
C       4.77       9.18      24.47
C       4.12       1.65       3.46
N       3.69       5.49       5.62
N       5.20       5.34      22.31
N       7.83       5.43      13.90
N       1.06       5.41      14.02
N       1.45       6.09       7.38
N       7.43       4.73      20.55
N       5.03       9.20       1.12
N       3.86       1.63      26.80
O       5.54       7.48      13.95
O       3.36       3.36      13.94
O       5.62       3.40      13.87
O       3.28       7.44      14.10
O       5.49       5.50      11.84
O       3.39       5.30      16.09
O       5.65       5.36      15.95
O       3.24       5.51      11.98
O       3.29       7.75       5.54
O       5.60       3.08      22.38
O       5.20       7.62      22.27
O       3.69       3.20       5.66
