120

Hf      11.81      15.11      13.86
Hf      11.71      13.92       0.11
Hf      14.99      15.59      15.26
Hf      13.78      12.33      14.72
Hf      13.71       0.66       0.66
Hf      14.90      14.39       1.50
H      11.09      12.38      13.87
H      13.77       1.03      14.76
H      -0.37      13.17      16.05
H      12.43      15.13       2.57
C      14.95       2.77       9.16
C      15.03       2.62       6.91
C      14.44       4.57       7.89
C      12.69      10.18       6.16
C      13.23       8.45       7.50
C      12.69      10.45       8.41
C       2.11       8.33       0.55
C       3.93       7.09       0.06
C       1.95       6.08       0.50
C       8.82       4.61      14.96
C       7.06       5.92      15.50
C       9.09       6.85      15.10
C       6.70      16.03       4.04
C       5.36      15.45       5.77
C       4.45      16.00       3.77
C       3.44      13.60      11.29
C       5.67      13.72      11.66
C       4.84      14.22       9.62
C      14.79       0.42      12.46
C       8.92      13.81      14.10
C      12.62      12.71      11.79
C      11.08       1.26      14.98
C      12.76      12.46       2.82
C       1.20      15.84       1.34
C      11.36      10.22      15.31
C      10.11      16.04       1.85
C      16.21       2.71       0.22
C      -0.01      13.51      13.39
C      -0.24      11.64       0.44
C      15.03       0.36       3.53
C       2.14      13.43      11.84
C       1.11      13.39      12.49
C       6.77      13.64      12.57
C       7.69      13.66      13.36
C       2.39      16.07       2.12
C       3.32      16.09       2.90
C       7.97      16.17       3.42
C       8.97      16.19       2.73
C       5.20      15.02       7.13
C       5.04      14.64       8.27
C       9.44       3.34      14.81
C      10.14       2.34      14.80
C       9.95       7.99      15.07
C      10.69       8.95      15.12
C       0.40       3.94       0.49
C       1.13       4.91       0.55
C       0.68      10.55       0.64
C       1.42       9.58       0.66
C       5.68       6.06      15.86
C       4.52       6.17      16.19
C      12.57      10.81       4.89
C      12.58      11.50       3.89
C      12.53      12.04      10.51
C      12.57      11.30       9.55
C      15.17       1.81       5.74
C      15.20       1.07       4.77
C      15.03       2.09      10.41
C      15.00       1.35      11.37
C      13.65       7.09       7.65
C      14.02       5.93       7.77
N      15.23       2.01       8.09
N      14.64       3.90       6.74
N      14.57       4.06       9.13
N      13.06       8.89       6.24
N      13.08       9.17       8.62
N      12.46      11.01       7.21
N       3.41       8.33       0.23
N       3.25       5.93       0.17
N       1.33       7.25       0.73
N       7.51       4.67      15.28
N       7.79       7.05      15.44
N       9.65       5.66      14.83
N       6.62      15.64       5.33
N       4.24      15.60       5.04
N       5.65      16.25       3.22
N       4.45      13.43      12.16
N       5.93      14.11      10.40
N       3.56      13.98      10.00
O      15.72       0.24      13.30
O       9.08      13.24      15.22
O      12.04      13.83      11.97
O      11.33       0.49      14.00
O      11.61       1.24      16.15
O      13.31      12.05      12.64
O       9.78      14.53      13.47
O      13.63      -0.13      12.45
O      11.29      14.97      15.85
O      13.67      14.35      14.29
O      11.63      12.94      14.46
O      13.76       0.11      15.08
O      11.82      12.66       2.00
O       1.05      16.39       0.21
O      12.50      10.44      14.80
O      11.70       0.51       1.72
O      15.06       2.51       0.71
O      -0.80      12.53      13.55
O      -0.46      12.44       1.40
O      14.79      15.74       3.35
O      15.00      10.87      15.74
O      14.26       0.98       2.71
O      10.66      11.05      16.00
O      -0.06      14.66      13.97
O      -0.44       1.11      15.92
O      10.18      14.88       1.30
O      13.90      13.03       2.85
O       0.39      15.04       1.93
O      14.73      16.19       0.53
O      13.73      13.49       0.07
O      -1.29      13.49      16.01
O      12.79      15.14       1.67
