156

Mg       0.98      18.50       9.92
Mg       3.23      16.80       9.25
Mg      -1.27      17.07      11.06
Mg      -0.03      -1.04      20.33
Mg      -2.29       0.67      20.96
Mg       2.22       0.36      19.17
H       3.11      18.20       5.99
H      -1.39      13.54      11.48
H       0.86      20.62      12.77
H       3.22      18.46       3.68
H      -1.28      11.42      12.41
H       0.97      22.49      14.14
H       2.50      19.18       1.74
H      -2.01       9.37      12.75
H       0.26      23.81      15.74
H       0.88      19.25       2.46
H       3.12       9.97      12.33
H      -1.38      23.15      15.44
H      -0.46      18.70       0.84
H       1.79       8.83      13.63
H      -2.70      24.84      15.77
H      -0.37      17.11       0.06
H       1.88       8.95      15.39
H      -2.61      26.31      14.79
H      -0.83       2.08      29.68
H       3.68       7.20      13.59
H       1.42      -9.29      17.20
H      -2.05       1.38      28.60
H       2.46       6.62      14.74
H       0.21      -8.01      17.13
H       1.23       0.65      30.17
H      -1.02       8.34      14.57
H       3.48      -9.02      15.72
H       1.33      -0.93      29.40
H      -0.91       8.46      16.34
H       3.59      -7.55      14.73
H       2.91      16.37       1.63
H      -1.59      10.68      15.25
H       0.67      25.31      13.36
H       1.69      15.68       0.54
H       3.95      10.08      16.39
H      -0.54      26.60      13.30
H      -1.65      -1.42      28.51
H       2.86       7.94      17.20
H       0.60      -6.54      14.75
H      -0.02      -1.53      27.81
H      -2.26       7.39      17.65
H       2.24      -5.88      15.00
H      -2.34      -0.74      26.55
H       2.17       5.90      17.60
H      -0.08      -5.17      16.32
H      -2.19      -0.60      24.24
H       2.31       3.83      18.62
H       0.06      -3.25      17.59
H       2.53       0.80      24.77
H       0.28       3.58      17.14
H       4.78      -4.41      18.56
H       1.12       0.48      26.80
H      -1.13       5.51      16.41
H       3.37      -6.01      17.26
H      -0.22      17.19       3.42
H       2.03      11.83      13.64
H      -2.47      23.35      13.18
H      -1.60      16.77       5.46
H       0.65      13.81      12.98
H       2.90      21.80      11.79
C       1.31      17.67       7.01
C       3.56      14.69      11.42
C      -0.94      20.00      11.80
C       2.08      17.89       5.85
C       4.33      13.58      11.81
C      -0.17      20.89      12.56
C       1.53      17.77       4.57
C       3.78      12.53      12.56
C      -0.72      22.07      13.10
C       1.72      18.57       2.24
C       3.96      10.11      13.03
C      -0.53      23.68      14.96
C       0.24      17.97       0.38
C       2.49       8.80      14.48
C      -2.00      25.59      15.38
C      -1.32       1.13      29.39
C       3.18       7.43      14.55
C       0.93      -8.57      16.52
C       0.63      -0.22      29.85
C      -1.61       8.50      15.49
C       2.88      -8.30      15.12
C       2.19      16.62       0.84
C      -2.31       9.87      15.43
C      -0.05      25.87      13.97
C      -0.86      -0.84      28.01
C       3.65       7.21      16.95
C       1.40      -6.39      15.51
C      -0.62      -0.12      25.66
C       3.88       4.82      17.50
C       1.63      -4.72      17.30
C      -1.15      -0.29      24.38
C       3.35       3.79      18.29
C       1.10      -3.52      17.79
C      -0.37      -0.14      23.22
C       4.13       2.72      18.74
C       1.88      -2.59      18.51
C       1.00       0.26      23.37
C      -1.25       2.65      18.31
C       3.25      -2.92      18.78
C       1.50       0.47      24.68
C      -0.75       3.67      17.48
C       3.75      -4.16      18.31
C       0.73       0.28      25.81
C      -1.52       4.74      17.07
C       2.98      -5.05      17.58
C       1.92       0.44      22.25
C      -0.34       1.58      18.72
C       4.17      -2.04      19.50
C       0.19      17.35       4.42
C       2.44      12.61      13.00
C      -2.06      22.41      12.82
C      -0.57      17.11       5.55
C       1.68      13.71      12.64
C       3.93      21.55      12.04
C      -0.06      17.27       6.85
C       2.19      14.76      11.84
C      -2.31      20.34      11.53
C      -0.97      17.05       7.98
C       1.28      15.85      11.47
C       3.53      19.47      10.77
N       2.31      18.07       3.46
N       4.56      11.42      12.86
N       0.06      22.88      13.92
N       1.17      17.51       1.41
N       3.42       9.92      14.37
N      -1.07      24.94      14.46
N      -0.31       0.24      28.82
N       4.20       7.38      15.61
N       1.95      -7.64      16.04
N      -1.43      -0.36      26.77
N       3.08       5.90      17.15
N       0.83      -5.56      16.54
O       4.61      16.57       7.80
O       0.11      15.93      11.97
O       2.36      19.86      10.45
O      -0.57      17.37       9.17
O       1.68      16.71      10.59
O       3.93      18.28      10.46
O       1.89      17.88       8.20
O       4.14      15.62      10.65
O      -0.36      18.87      11.38
O       3.09       0.92      22.41
O       0.84       1.48      18.22
O      -1.42      -2.42      19.83
O       1.52       0.08      21.06
O      -0.73       0.73      19.63
O       3.77      -0.83      19.78
O      -0.94      -0.39      22.03
O       3.56       1.81      19.55
O       1.31      -1.44      18.89
