111

Zn      11.07      12.03       9.17
Zn      13.52      10.91       7.43
Zn      13.69      13.73       9.09
Zn      12.05      13.46       6.37
H      21.15      12.62       4.14
H      10.66       8.39       2.41
H      14.49      16.75      13.61
H      18.02      12.22       7.23
H      15.58      11.56       0.54
H       7.87       4.98       4.78
H      10.42       7.39       7.43
H      12.19       7.88      11.32
H      17.17      20.14      11.34
H       6.72       2.89       4.27
H      12.74      17.27       4.89
H      19.34      10.37      11.65
H      14.90      17.61       8.56
H       9.24       6.35       6.28
H      15.88      18.74       9.81
H      16.97      10.97      11.19
H      18.24      22.25      11.91
H       4.06      10.04      10.85
H       5.88      13.40       3.77
H       8.26      13.57       4.54
H       7.15      12.00       8.36
H      18.56      10.77       5.80
H       9.16       6.78       1.35
H       6.70       9.90       8.37
H      11.94       9.59       3.28
H      15.17      12.38       2.85
H      15.96      18.41      14.65
H       9.49      13.69      15.42
H       9.86      12.93      13.07
H      13.33      15.43      12.79
C      13.26      11.47       4.59
C       4.80      10.82       9.01
C       3.80      10.56       9.93
C      11.88      13.70      11.42
C      20.04      10.91       9.68
C      19.68      11.42       8.38
C      19.04      10.76      10.67
C      17.73      11.09      10.42
C      18.33      11.76       8.16
C      11.63      14.16      12.82
C      13.50      11.02       3.18
C       7.48      13.16       5.19
C      10.33      14.07      14.85
C      10.53      13.65      13.55
C      12.50      15.07      13.40
C      11.74       9.14       8.96
C      12.31      15.53      14.72
C      11.20      15.01      15.46
C      13.20      16.49      15.35
C      11.98       8.63       0.69
C      10.86       8.08       1.38
C      10.01       7.18       0.79
C       6.85      12.22       7.34
C      14.30      17.06      14.64
C      15.13      17.99      15.22
C      13.93      10.16       0.55
C      12.86       9.60       1.31
C      13.44      15.93       7.14
C      14.76      11.15       1.13
C      14.54      11.61       2.41
C      12.70      10.03       2.65
C      13.80      17.33       6.77
C      11.34       7.75       9.33
C       5.51      12.04       6.92
C      13.71      19.17       5.21
C      13.36      17.88       5.55
C      14.58      18.09       7.64
C      14.95      19.41       7.33
C       7.84       3.24       6.08
C      15.94      11.89       8.84
C      15.74      20.23       8.23
C       9.43       4.84       7.84
C       8.98       5.33       6.58
C       8.21       4.57       5.74
C       5.17      12.51       5.61
C      16.15      19.75       9.50
C      16.87      20.52      10.37
C      17.25      21.85      10.02
C      10.22       5.66       8.74
C      11.30       5.95      10.93
C      11.66       7.24      10.61
C       9.22      12.84       6.98
C      10.64       6.97       8.41
C       7.82      12.74       6.49
C      17.37      11.58       9.15
C       4.49      11.48       7.77
C       6.17      13.05       4.76
C      19.12      11.63       5.36
C       6.11      10.16       9.28
C      20.71      11.61       7.39
C      20.42      11.95       6.02
C      21.41      12.39       5.17
O      12.58      12.53       8.01
O      15.41      11.17       7.93
O      10.10      13.27       6.15
O      15.40      12.83       9.50
O       9.43      12.47       8.18
O      18.70      12.18       4.35
O       6.49       9.82      10.39
O      11.07      10.08       9.50
O      12.58      15.34       6.40
O      13.38      10.59       5.50
O      12.92      14.17      10.83
O      12.94      12.69       4.77
O      11.04      12.88      10.92
O      12.73       9.26       8.16
O      14.02      15.42       8.16
