102

Al       6.02       5.55       9.32
Al       2.67       5.50       9.26
Al       2.44      11.03      18.58
Al       5.79       0.02       0.01
H       2.85       2.09       3.53
H       6.20       8.96      15.05
H       6.47       2.21       3.74
H       3.13       8.84      14.85
H       2.94       3.32       5.67
H       6.29       7.74      12.92
H       6.55       3.36       5.60
H       3.21       7.69      12.99
H       5.75       3.01      12.54
H       2.40       8.05       6.04
H       2.91       1.74      11.11
H       6.25       9.31       7.48
H       3.92      -0.38      11.96
H       0.58      11.43       6.63
H       3.85      -2.32      13.49
H       0.50      13.37       5.10
H       2.73      -3.56      15.34
H       6.08      14.62       3.25
H       5.58      -2.29      16.79
H       2.23      13.34       1.80
H       4.63       1.76      14.40
H       1.28       9.29       4.19
H       3.66       0.36      15.96
H       0.31      10.69       2.63
H       4.39       3.80       8.93
H       1.04       7.26       9.66
H       4.09       1.75       0.21
H       0.74       9.30      18.37
C       4.34       7.43       7.79
C       0.99       3.62      10.79
C       4.32       6.79      11.36
C       0.98       4.26       7.22
C       1.90       2.36       4.00
C       5.25       8.69      14.59
C       0.77       1.99       3.35
C       4.12       9.06      15.23
C       1.95       3.10       5.25
C       5.30       7.96      13.34
C       0.88       3.53       5.95
C       4.23       7.52      12.64
C       6.58       2.30      12.59
C       3.23       8.76       5.99
C       0.98       2.47      11.75
C       4.33       8.58       6.84
C       2.06       1.58      11.77
C       5.40       9.48       6.81
C       2.03       0.46      12.62
C       5.38      10.59       5.96
C       0.92       0.29      13.51
C       4.27      10.77       5.08
C       6.54       1.23      13.50
C       3.19       9.83       5.08
C       3.08      -0.52      12.64
C       6.43      11.57       5.95
C       3.04      -1.59      13.48
C       6.38      12.65       5.11
C       1.95      -1.78      14.39
C       5.29      12.83       4.19
C       0.88      -0.83      14.39
C       4.23      11.88       4.19
C       6.47      -1.01      15.28
C       3.12      12.06       3.30
C       5.41      -0.03      15.27
C       2.06      11.08       3.32
C       5.45       1.04      14.41
C       2.10      10.01       4.17
C       1.90      -2.85      15.30
C       5.25      13.91       3.29
C       0.81      -3.03      16.14
C       4.15      14.08       2.44
C       6.43      -2.13      16.13
C       3.08      13.18       2.46
C       4.13       9.79      16.52
C       0.79       1.26       2.07
C       4.13      15.24       1.50
C       0.78      -4.18      17.09
O       3.20       6.49      10.83
O       6.55       4.56       7.76
O       5.48       7.04       8.22
O       2.13       4.01      10.36
O       5.48       6.53      10.89
O       2.13       4.53       7.70
O       6.56       4.11      10.48
O       3.21       6.94       8.11
O       4.36       4.74       9.16
O       1.01       6.32       9.43
O       5.26      15.72       1.16
O       1.91      -4.67      17.43
O       2.98      10.06      17.01
O       6.33       1.00       1.58
O       2.99      15.64       1.09
O       6.34      -4.58      17.50
O       1.91       0.96       1.55
O       5.26      10.09      17.03
O       4.11       0.79       0.14
O       0.76      10.26      18.45
O       4.39      -0.26      16.15
O       1.04      11.31       2.44
