172

Cu      24.68       2.31       4.83
Cu      23.38       3.62       2.25
Cu      25.97       4.92       3.57
Cu       3.58      11.92      19.16
Cu       4.84      10.65      16.54
Cu       2.26       9.35      17.86
Cu      10.53      26.20       9.41
Cu       9.26      24.93      12.02
Cu      11.85      23.62      10.71
Cu      17.69      16.64      23.68
Cu      18.96      17.90      26.30
Cu      16.37      19.21      24.98
H      22.54       0.03       5.46
H      21.11       1.46       1.62
H      28.21       5.55       5.77
H      26.82       1.67       7.10
H      22.76       5.78      28.54
H      26.60       7.19       1.43
H       5.73      14.19      19.79
H       7.09      12.84      15.89
H      28.21       8.73      20.04
H       1.45      12.56      21.44
H       5.45       8.50      14.26
H       1.62       7.08      15.71
H       8.39      28.48       8.79
H       7.02      27.12      12.67
H      14.11      23.00       8.54
H      12.67      26.85       7.14
H       8.65      22.77      14.30
H      12.49      21.36      12.86
H      19.84      14.37      23.06
H      21.20      15.72      26.95
H      14.10      19.82      22.81
H      15.56      15.99      21.41
H      19.57      20.06       0.02
H      15.73      21.47      27.14
C      22.36       0.56       4.53
C      21.40       0.31       3.54
C      21.64       1.28       2.55
C      27.69       4.61       5.92
C      27.94       3.61       6.88
C      26.99       2.61       6.60
C      23.69       5.95       0.52
C      24.68       6.92       0.27
C      25.67       6.67       1.25
C       5.89      13.68      18.84
C       6.84      13.95      17.84
C       6.58      13.00      16.84
C       0.52       9.66      20.21
C       0.29      10.65      21.17
C       1.26      11.63      20.92
C       4.52       8.33      14.80
C       3.53       7.36      14.56
C       2.55       7.61      15.53
C       8.22      27.96       9.73
C       7.28      28.23      10.73
C       7.53      27.28      11.73
C      13.58      23.93       8.37
C      13.82      24.93       7.40
C      12.85      25.91       7.66
C       9.58      22.60      13.77
C      10.57      21.64      14.01
C      11.56      21.88      13.04
C      20.01      14.88      24.00
C      20.95      14.60      25.01
C      20.69      15.56      26.01
C      14.63      18.90      22.64
C      14.40      17.90      21.68
C      15.38      16.92      21.93
C      18.64      20.23      28.05
C      17.64      21.19      28.29
C      16.66      20.94      27.32
C      18.59      26.01       3.55
C      20.38      27.83       3.54
C       9.62      16.82      17.84
C       7.85      14.99      17.83
C       4.48       2.55      10.73
C       6.26       0.72      10.74
C      23.74      11.74      25.01
C      21.96      13.57      25.01
C       2.52       3.57       9.73
C       0.73       3.60       7.91
C      11.59      17.85      18.84
C      13.38      17.89      20.65
C      25.70      10.71      24.01
C      27.50      10.67      22.20
C      16.63      24.98       4.56
C      14.84      24.95       6.38
C      24.70       9.74      26.00
C      24.69       7.94      27.81
C      10.59      18.82      16.85
C      10.58      20.62      15.04
C      17.62      24.01       2.57
C      17.64      22.21       0.76
C       3.51       4.54      11.72
C       3.52       6.34      13.53
N      10.60      17.83      17.84
N      17.62      25.00       3.56
N      24.71      10.73      25.01
N       3.50       3.55      10.73
N      22.67       2.06       2.93
N      23.13       1.59       4.15
N      26.23       3.00       5.56
N      26.68       4.23       5.13
N      25.28       5.64       2.02
N      24.06       5.18       1.55
N       5.57      12.21      17.23
N       5.13      12.65      18.47
N       2.03      11.24      19.88
N       1.55      10.03      19.43
N       2.93       8.64      16.30
N       4.15       9.10      15.83
N       8.54      26.49      11.34
N       8.98      26.93      10.11
N      12.08      25.52       8.69
N      12.55      24.30       9.14
N      11.17      22.91      12.27
N       9.95      23.37      12.74
N      19.68      16.35      25.62
N      19.24      15.91      24.38
N      16.14      17.31      22.96
N      15.67      18.53      23.42
N      17.05      19.91      26.55
N      18.26      19.46      27.02
N      18.90      26.54       2.36
N      19.12      26.35       4.74
N      20.04      27.29       4.74
N      19.83      27.48       2.35
N       9.11      16.47      19.03
N       9.30      16.30      16.64
N       8.37      15.36      16.64
N       8.20      15.52      19.03
N       4.81       2.02      11.93
N       5.00       2.20       9.54
N       5.91       1.26       9.54
N       5.73       1.09      11.93
N      23.41      12.26      26.20
N      23.23      12.09      23.81
N      22.32      13.04      23.81
N      22.49      13.20      26.21
N       1.99       2.38       9.38
N       2.20       4.77       9.21
N       1.27       4.79       8.28
N       1.07       2.39       8.44
N      11.89      19.05      19.36
N      12.14      16.67      19.17
N      13.06      16.68      20.11
N      12.82      19.07      20.29
N      26.00       9.51      23.49
N      26.25      11.89      23.68
N      27.17      11.87      22.74
N      26.94       9.48      22.56
N      16.32      23.78       5.08
N      16.09      26.17       4.90
N      15.17      26.15       5.84
N      15.40      23.76       6.02
N      23.51       9.21      26.32
N      25.89       9.41      26.54
N      25.89       8.48      27.47
N      23.50       8.29      27.26
N      11.78      19.15      16.31
N       9.39      19.34      16.53
N       9.38      20.27      15.59
N      11.78      20.08      15.38
N      18.82      23.49       2.24
N      16.43      23.68       2.04
N      16.44      22.74       1.11
N      18.83      22.57       1.30
N       4.71       5.08      12.03
N       2.32       4.87      12.26
N       2.33       5.80      13.19
N       4.72       6.00      12.97
