105

Cu       1.57      -4.90       8.49
Cu       1.57       9.81       0.00
Cu       3.13       4.91       8.49
H       1.61      10.37       3.13
H       3.18       7.33       6.44
H       0.05      11.72       7.42
H      -0.05      -0.56      13.86
H      -1.62       2.48      10.55
H       1.52      -1.91       9.57
H       2.87      12.28       5.30
H      -0.27       8.26       3.70
H       1.30       8.88       7.99
H      -1.30      -2.47      11.68
H       1.83       1.55      13.29
H       0.26       0.93       9.00
H       1.13      14.83       3.52
H       2.70       5.44       2.39
H      -0.43       9.16      11.08
H       0.43      -5.02      13.47
H      -1.14       4.37      14.60
H       1.99       0.66       5.91
H       0.76      13.81       1.24
H       2.32       3.97       4.40
H      -0.81      11.64      11.34
H       0.81      -4.00      15.75
H      -0.76       5.84      12.59
H       2.37      -1.82       5.64
H      -0.75      11.75       0.02
H       0.81       3.95       6.80
H      -2.32      13.73      10.17
H       2.32      -1.94      16.97
H       0.75       5.86      10.18
H       3.89      -3.92       6.82
C       2.37      10.98       2.64
C      -0.77       6.61       6.15
C       0.80      11.84       8.19
C      -0.81      -1.17      14.34
C       2.33       3.21      10.84
C       0.76      -2.02       8.80
C      -1.27      12.59       4.42
C       0.29       7.34       3.88
C       1.86       9.50       8.69
C       2.84      -2.78      12.57
C       1.27       2.47      13.11
C      -0.30       0.32       8.30
C      -0.75      12.46       2.03
C       0.82       5.34       5.18
C       2.39      11.63       9.78
C       2.31      -2.65      14.96
C       0.75       4.48      11.81
C      -0.82      -1.82       7.21
C       0.40      14.04       3.37
C       1.97       5.70       3.14
C      -1.17       9.68      10.48
C       1.17      -4.23      13.62
C      -0.40       4.11      13.85
C       2.73       0.13       6.51
C       3.22      11.99       3.16
C       0.08       6.55       5.02
C       1.65      10.88       8.81
C      -1.65      -2.18      13.83
C       1.48       3.26      11.97
C      -0.09      -1.07       8.18
C      -0.01      14.25       5.82
C       1.56       7.73       1.74
C      -1.57       7.45       9.43
C       1.57      -4.44      11.16
C       0.00       2.09      15.25
C       3.14       2.36       7.56
C      -0.33      13.60       4.51
C       1.24       6.91       2.95
C      -1.89       8.91       9.52
C       1.89      -3.79      12.47
C       0.32       2.90      14.04
C       3.46       0.90       7.46
C       0.20      13.49       2.12
C       1.77       4.90       4.24
C      -1.37      11.04      10.62
C       1.36      -3.68      14.87
C      -0.21       4.92      12.74
C       2.93      -1.23       6.36
N       3.53      11.75       0.96
N       0.39       4.77       6.33
N       1.96      12.91       9.70
N      -1.96      -1.93      16.03
N       1.17       5.05      10.66
N      -0.39      -3.10       7.29
N       2.58      10.85       1.33
N      -0.56       5.53       6.92
N       1.01      13.04       8.73
N      -1.01      -1.04      15.66
N       2.12       4.28      10.07
N       0.55      -3.23       8.25
O      -0.76      13.93       6.83
O       0.81       8.76       1.50
O       2.37       6.73       8.65
O       2.33      -4.12      10.16
O       0.76       1.06      15.48
O      -0.81       3.08       8.34
O       0.96      15.05       5.90
O       2.53       7.39       1.01
O      -0.61       6.99      10.08
O       0.60      -5.23      11.09
O      -0.97       2.42      15.98
O       2.17       2.82       6.91
