177

Co       0.92      13.65       0.97
Co       3.74       2.40       2.23
Co      -1.90       9.12      11.35
Co       5.15      -5.30      13.55
Co       2.33       5.99      12.36
Co      -0.50      -0.69       3.17
H       2.99      -0.58       1.67
H       0.16      -6.66      14.20
H      -2.66       7.23      13.21
H       4.56      -0.68       1.78
H       1.74      -6.51      14.24
H      -1.08       7.19      13.07
H       3.10       8.99      12.75
H      -2.55      14.93       0.38
H       0.27       1.25       1.41
H       1.51       8.99      12.85
H       4.35      15.01       0.33
H       7.16       1.17       1.37
H       4.47       9.13       0.35
H      -1.18       4.13       6.46
H       1.66      11.92       7.74
H       4.90      11.03       1.49
H      -0.76       4.17       4.25
H       2.08       9.98       8.81
H       6.16      12.01       0.74
H       0.51       3.03       3.77
H       3.34      10.14      10.04
H      -2.00      11.24       2.29
H       0.82       4.76       3.66
H       3.65       9.18       8.60
H       2.03      -2.61      14.20
H      -0.78       5.20       9.71
H       4.87      -2.59       5.18
H       2.01      -1.81      12.62
H      -0.80       3.44       9.81
H       4.85      -1.62       6.66
H       0.99      -1.21      13.93
H      -1.82       4.28       8.62
H       3.83      -3.06       6.53
H       3.98      -2.78      12.91
H       1.16       4.17      10.50
H       6.82      -1.40       5.68
H      -2.82      -2.33      12.75
H       2.84       3.81      10.18
H       0.02      -1.49       6.15
H       1.82       7.97       0.32
H       4.65       4.69       7.47
H      -1.00      12.51       6.75
H      -1.19       0.72      13.53
H       4.47       2.96       7.15
H       1.64      -3.69       8.40
H      -1.46      -1.00      13.26
H       4.20       3.58       8.78
H       1.38      -2.59       7.05
H       1.29      10.05       1.24
H       4.12       4.44       5.20
H      -1.52      10.68       8.10
H       0.00      11.14       1.75
H       2.83       4.34       4.02
H      -2.82       9.70       8.78
H      -3.30       2.52      13.01
H       2.34       1.61       5.85
H      -0.49      -4.14      10.23
H      -2.06       3.61      12.39
H       3.58       0.52       5.22
H       0.75      -4.13      11.48
H      -0.27       2.37      13.35
H       5.37       1.98       5.81
H       2.55      -4.35       9.92
H       2.91      11.29       0.48
H       5.73       3.16       4.52
H       0.08      10.72       9.55
H       6.50       5.93       1.21
H       0.86       6.47       8.80
H       3.69      12.77       4.54
H      -0.79       4.97       2.06
H       2.04       7.69       9.21
H       4.87      12.51       3.28
H       1.08       5.97       1.20
H       3.91       6.44       8.77
H      -1.74      12.75       4.58
H      -1.25      -2.97      14.12
H       4.41       5.32      10.06
H       1.58      -2.35       4.91
C      -0.63       9.61       0.39
C       2.19       3.92       6.02
C      -3.45      11.64       8.14
C      -3.07       0.01      14.30
C       2.58       3.98       7.38
C      -0.24      -4.00       7.40
C       4.44      -0.96      13.96
C       1.62       4.18       8.40
C      -1.20      -3.21       6.73
C       3.07      -0.68      14.14
C       0.25       4.19       8.06
C       5.90      -3.51       6.88
C       5.53       8.92       0.19
C      -0.11       4.11       6.72
C       2.72      12.16       7.63
C       6.47       9.86       0.62
C       0.82       4.01       5.69
C       3.65      11.31       8.23
C       5.98      11.10       1.32
C       0.33       3.99       4.27
C       3.16      10.09       8.96
C       1.98      -1.63      13.70
C      -0.84       4.29       9.11
C       4.81      -2.65       6.28
C       4.82      -2.34      13.46
C       2.00       4.43       9.84
C      -0.82      -2.09       5.79
C      -1.61      -0.19      13.97
C       4.04       3.80       7.72
C       1.22      -3.62       7.39
C       0.41      10.60       0.88
C       3.23       3.86       4.92
C      -2.41      10.72       8.75
C      -2.73       3.43      13.25
C       2.92       1.36       4.95
C       0.09      -4.79      10.89
C      -3.68       4.62      13.30
C       1.96       0.81       3.89
C      -0.86      -5.43      11.90
C       0.07       4.47      13.60
C       5.72       1.14       3.87
C       2.89      -5.61      11.62
C      -0.48       3.14      14.11
C       5.16       2.25       4.77
C       2.34      -5.39      10.21
C       7.10       5.02       1.13
C       1.46       6.86       9.64
C       4.29      13.29       3.78
C       6.17       3.80       1.16
C       0.53       7.49      10.67
C       3.36      13.87       2.72
C       1.47       3.86       0.99
C      -4.18       7.32      10.71
C      -1.34      13.99       2.85
C       0.94       5.19       0.44
C       3.77       6.18       9.83
C      -1.87      13.80       4.27
N      -1.91       3.26      14.46
N       3.74       2.49       4.49
N       0.91      -5.75      10.15
N      -3.28      -3.33      14.52
N       2.38       5.84      10.17
N      -0.44      -2.52       4.40
O      -3.46       5.55      14.14
O       2.19       1.06       2.66
O      -0.63      -6.62      12.29
O       0.94      15.65       1.45
O       3.76       1.81       0.25
O      -1.89       7.70      12.85
O       5.14      -7.29      13.08
O       2.32       6.57      14.32
O      -0.51       0.71       1.69
O       3.84       4.59      12.47
O       1.01       0.10       4.33
O      -1.81      -4.69      12.29
O      -0.44       5.54      14.06
O       5.20       1.00       2.71
O       2.38      -6.55      12.32
O       1.03       4.40      12.77
O       6.68       0.46       4.34
O       3.85      -4.87      11.97
O       6.39       2.84       0.35
O       0.75       7.27      11.91
O       3.58      15.05       2.28
O       5.25       3.84       2.02
O      -0.40       8.22      10.20
O       2.44      13.10       2.31
O       0.94       2.79       0.54
O      -4.71       7.47      11.86
O      -1.87      14.91       2.15
O       2.44       3.94       1.80
O      -3.21       7.98      10.24
O      -0.37      13.25       2.52
