116

Zn       3.96      18.18       9.21
Zn       6.61       0.03       9.04
Zn       5.97       9.02      18.29
Zn       3.31       9.04       0.12
H       6.33       6.14      15.50
H       2.07       5.88      15.36
H       3.59       2.74      12.01
H       7.85       3.00      12.14
H       6.33      11.97       2.85
H       2.06      12.09       3.12
H       3.59      15.43       6.29
H       7.85      15.29       6.04
H       6.80      12.09      15.24
H       2.56      11.70      15.65
H       3.13      15.10      12.26
H       7.36      15.51      11.86
H       3.34       6.15       2.98
H       7.60       6.28       2.85
H       6.59       2.91       6.18
H       2.32       2.80       6.31
H       8.70       3.99      14.58
H       8.03       5.61      14.81
H       8.78       5.17      13.27
H       1.17       3.63      14.22
H       1.88       3.33      12.63
H       1.18       4.91      13.01
H       8.75      14.18       3.79
H       8.03      12.60       3.44
H       8.73      12.93       5.03
H       1.22      14.54       4.14
H       1.88      14.73       5.77
H       1.13      13.20       5.29
H       8.70      13.28      12.77
H       8.28      12.97      14.46
H       8.74      14.60      13.95
H       1.22      12.62      13.44
H       1.64      14.31      13.14
H       1.19      13.79      14.77
H       1.18       3.79       4.08
H       1.73       5.43       3.73
H       1.17       5.01       5.35
H       8.72       3.98       3.82
H       8.19       3.71       5.49
H       8.77       5.30       4.99
C       4.58       1.71       7.38
C       5.76       1.76      10.91
C       5.04      16.44      10.93
C       5.76      16.50       7.30
C       4.89      10.76      16.57
C       4.16       7.12      16.60
C       5.35       7.36       1.78
C       4.16      10.88       1.86
C       5.45       5.68      15.06
C       3.03       5.54      14.98
C       3.07       4.60      13.97
C       4.35       4.16      13.47
C       4.47       3.19      12.45
C       6.89       3.34      12.53
C       6.84       4.28      13.54
C       5.56       4.72      14.03
C       4.21       6.09      15.52
C       5.71       2.79      11.98
C       5.44      12.41       3.31
C       3.03      12.48       3.46
C       3.07      13.48       4.42
C       4.35      13.97       4.86
C       4.47      14.99       5.83
C       6.89      14.90       5.69
C       6.84      13.91       4.74
C       5.56      13.42       4.29
C       4.21      11.95       2.90
C       5.71      15.44       6.25
C       5.80      12.41      14.93
C       3.40      12.19      15.16
C       3.17      13.16      14.20
C       4.29      13.79      13.56
C       4.12      14.78      12.57
C       6.52      15.01      12.35
C       6.75      14.04      13.31
C       5.63      13.40      13.94
C       4.71      11.81      15.53
C       5.21      15.38      11.98
C       4.28       5.77       3.36
C       6.70       5.85       3.28
C       6.80       4.87       4.25
C       5.61       4.30       4.81
C       5.64       3.30       5.80
C       3.22       3.23       5.88
C       3.12       4.21       4.91
C       4.32       4.77       4.35
C       5.45       6.30       2.83
C       4.47       2.77       6.33
C       8.15       4.80      14.08
C       1.77       4.08      13.42
C       8.15      13.37       4.21
C       1.77      14.02       4.94
C       8.18      13.70      13.65
C       1.74      13.50      13.86
C       1.74       4.64       4.48
C       8.18       4.43       4.67
O       3.48       1.22       7.86
O       5.75       1.36       7.73
O       6.90       1.42      10.42
O       4.64       1.27      10.53
O       6.10      16.93      10.44
O       3.84      16.78      10.59
O       4.65      16.87       7.79
O       6.91      16.98       7.64
O       6.08      10.41      16.91
O       3.82      10.26      17.06
O       3.01       7.46      17.09
O       5.27       7.61      16.97
O       4.17       7.71       1.43
O       6.44       7.85       1.29
O       5.27      10.52       1.36
O       3.01      10.40       1.51
