50

Zn       8.03       5.49       8.05
Zn       8.41       8.31       8.05
C       8.20       6.91       5.47
C       8.25       6.89      10.63
C       4.79       1.13       8.04
C      11.64      12.67       8.04
C       6.20       1.26       8.04
C      10.24      12.54       8.05
C       7.03       0.13       8.04
C       9.40      13.68       8.04
C       6.81       2.54       8.05
C       9.62      11.26       8.05
C       5.69       7.41       7.99
C      10.75       6.39       7.97
C       4.19       7.53       7.90
C      12.25       6.27       7.88
C       3.44       6.90       6.97
C      13.01       6.91       6.97
C       7.16       6.77      15.45
C       9.27       7.04       0.66
C       8.35       6.89      14.71
C       8.08       6.91       1.40
C       9.57       7.01      15.42
C       6.86       6.79       0.68
C       8.32       6.89      13.30
C       8.12       6.91       2.81
C       8.16       6.91       4.02
C       8.28       6.89      12.08
N       9.08      10.24       8.07
N       7.36       3.56       8.06
Cl      12.25       7.79       5.68
Cl       4.20       6.03       5.68
Cl      12.95       5.29       9.11
Cl       3.48       8.51       9.12
Cl       5.38       6.65       1.52
Cl      11.06       7.16      14.59
Cl       3.77       2.48       8.05
Cl      12.67      11.32       8.05
O       7.86       5.81       6.03
O       8.19       8.04      10.07
O       8.55       7.99       6.03
O       8.29       5.75      10.07
O       6.11       6.24       8.25
O      10.33       7.56       8.23
O       6.38       8.46       7.83
O      10.07       5.34       7.81
F       6.00       6.66      14.77
F      10.43       7.16       1.33
F       8.08      13.49       8.05
F       8.36       0.31       8.04
