96

Zn       8.50       8.91       9.00
Zn       5.69       8.80       8.88
H       3.42      10.16      10.25
H       1.02      10.15      10.23
H       1.24       7.08       7.17
H       3.64       7.24       7.34
H      12.95      10.62      10.70
H      13.17       7.55       7.64
H      10.77       7.54       7.62
H      10.55      10.46      10.54
H       4.79       8.72      13.14
H       4.65       8.69      15.52
H       8.98       8.86      15.72
H       9.06       8.89      13.33
H       5.21       8.84       2.15
H       9.54       9.02       2.35
H       9.40       8.98       4.74
H       5.13       8.81       4.54
H       9.41       4.65       9.03
H       9.48       2.14       9.03
H       5.12       4.52       8.86
H       9.07      13.19       9.02
H       4.78      13.06       8.85
H       4.71      15.57       8.85
H      14.77       6.68       8.03
H      -0.38       6.95       7.04
H      14.77       7.94       6.77
H      -0.58       9.76      11.11
H      14.57      10.75      10.83
H      -0.58      11.02       9.84
H       9.98       9.93       0.81
H       9.01       8.85      17.33
H      10.05       8.15       0.80
H       4.14       9.55      17.07
H       5.18       8.85       0.55
H       4.21       7.77      17.06
C       7.00       8.84      11.55
C       6.98      11.48       8.95
C       7.19       8.86       6.32
C       7.21       6.22       8.92
C       2.88       9.49       9.58
C       1.50       9.47       9.55
C       0.77       8.60       8.69
C       1.62       7.80       7.89
C       3.01       7.87       7.96
C      -0.72       8.48       8.57
C      14.91       9.22       9.30
C      12.57       9.90       9.99
C      13.42       9.10       9.18
C      12.69       8.23       8.32
C      11.31       8.21       8.30
C      11.18       9.83       9.91
C       6.93       8.82      13.05
C       5.71       8.76      13.72
C       5.65       8.74      15.11
C       6.80       8.77      15.95
C       8.02       8.83      15.22
C       8.09       8.85      13.83
C       6.83       8.76      17.45
C       7.36       8.94       0.42
C       6.17       8.87       2.66
C       7.39       8.93       1.92
C       8.54       8.96       2.76
C       8.48       8.94       4.15
C       7.26       8.88       4.83
C       6.10       8.85       4.04
C       7.26       4.72       8.93
C       8.49       4.05       8.99
C       8.53       2.67       8.99
C       7.35       1.90       8.94
C       6.11       2.60       8.89
C       6.07       3.99       8.89
C       7.41       0.49       8.94
C       6.78      17.21       8.94
C       6.84      15.80       8.94
C       8.08      15.10       8.98
C       8.12      13.71       8.99
C       6.93      12.98       8.94
C       5.70      13.65       8.89
C       5.66      15.03       8.89
C      15.37       7.47       7.55
C      -1.18      10.24      10.32
C       9.86       9.04       0.19
C       4.33       8.66      17.69
N       3.64       8.71       8.80
N      10.55       9.00       9.08
Cl       4.63       1.71       8.83
Cl       9.56      15.99       9.04
O       8.16       8.90      11.02
O       5.89       8.81      10.93
O       5.87      10.86       8.91
O       8.14      10.94       9.00
O       6.03       8.81       6.85
O       8.30       8.89       6.95
O       8.32       6.84       8.97
O       6.05       6.76       8.87
