288

Zn       9.30      16.45       5.72
Zn      18.45      20.65       4.40
Zn      18.14      18.36       2.87
Zn      27.29      18.75       7.25
Zn      27.29      13.90      14.53
Zn      18.14       9.70      15.85
Zn      18.45      12.00      17.38
Zn       9.30      11.60      13.00
H      10.06       0.22       0.15
H      10.06      14.96       9.98
H      26.52      15.40      10.27
H      26.52      30.13      20.10
H      23.66      20.22       5.14
H      14.51      16.88       4.99
H      22.07      19.26       6.58
H      12.93      17.84       3.55
H      12.93      10.13      15.11
H      22.07      13.47      15.26
H      14.51      11.09      13.67
H      23.66      12.51      16.70
H      24.16      18.85       0.39
H      15.01      18.26       9.74
H      21.57      14.35       7.13
H      12.42      22.75       3.00
H      12.42      11.51      19.86
H      21.57      12.09      10.51
H      15.01      16.00      13.12
H      24.16       7.60      17.25
H      33.16      29.64      19.78
H      14.87      15.88      10.60
H      21.72      14.47       9.65
H       3.43       0.71       0.47
H      25.61      17.85       2.16
H      16.46      19.26       7.97
H      20.12      15.60       5.53
H      10.97      21.51       4.60
H      10.97      12.51      18.09
H      20.12      11.09      12.28
H      16.46      14.75      14.72
H      25.61       8.84      15.65
H      22.16      21.19       3.40
H      13.02      15.91       6.72
H      23.57      18.03       8.14
H      14.42      19.07       1.99
H      14.42       9.16      16.85
H      23.57      14.44      13.53
H      13.02      12.32      12.11
H      22.16      11.28      18.26
H      10.05      12.21       0.35
H      19.20      24.90       9.78
H      17.39      11.77       1.02
H      26.53      25.34       9.11
H      26.53      18.14      19.90
H      17.39       5.46      10.47
H      19.20      18.59      19.23
H      10.05       5.01      11.14
H      10.36      13.71       6.14
H      19.51      23.40       3.98
H      17.07      17.69       0.17
H      26.22      19.42       9.95
H      26.22      16.65      14.11
H      17.07       6.95      16.27
H      19.51      12.66      20.08
H      10.36      10.93      10.30
H       8.59      15.65       2.96
H      17.74      21.46       7.16
H      18.85      15.50       3.19
H      27.99      21.61       6.94
H      27.99      14.70      17.29
H      18.85       8.90      13.09
H      17.74      14.85      17.06
H       8.59       8.74      13.31
H       8.73      13.61       1.51
H      17.88      23.50       8.61
H      18.71      13.38       1.86
H      27.85      23.73       8.26
H      27.85      16.74      18.74
H      18.71       6.86      11.64
H      17.88      16.98      18.39
H       8.73       6.62      11.99
H      10.62      11.58       4.83
H      10.62       3.59       5.29
H      25.96      24.09      18.96
H      25.97      21.44      11.41
H      25.97      18.77      15.42
H      25.96      26.76      14.96
H      10.62       6.26       1.28
H      10.62       8.91       8.84
H       9.55       9.83       3.91
H       9.55       5.34       6.21
H      27.04      22.56      17.70
H      27.04      22.97      12.67
H      27.04      20.52      16.34
H      27.04      25.01      14.03
H       9.55       7.79       2.55
H       9.55       7.39       7.58
C      20.91      21.08       0.90
C      11.76      16.03       9.23
C      24.82      15.68       8.99
C      15.68      21.43       1.13
C      15.68       9.28      19.35
C      24.82      14.32      11.02
C      11.76      14.68      11.26
C      20.91       8.92      19.12
C      29.40      30.33      20.23
C      11.11      15.20      10.14
C      25.47      15.15      10.11
C       7.18       0.02       0.01
C      20.06      20.48       1.99
C      10.91      16.62       8.14
C      25.67      16.46       8.02
C      16.52      20.65       2.10
C      16.52       9.87      18.26
C      25.67      13.73      12.11
C      10.91      13.90      12.22
C      20.06       9.70      18.15
C      22.28      20.80       0.73
C      13.13      16.30       9.39
C      23.45      15.42       8.80
C      14.30      21.69       1.32
C      14.30       9.55      19.52
C      23.45      14.05      10.85
C      13.13      14.94      11.45
C      22.28       8.66      18.93
C      23.07      20.10       1.77
C      13.92      17.00       8.36
C      22.66      16.11       7.76
C      13.52      21.00       2.37
C      13.52      10.25      18.48
C      22.66      13.35      11.89
C      13.92      14.25      12.49
C      23.07       9.35      17.88
C      23.75      19.92       4.10
C      14.60      17.19       6.03
C      21.99      18.18       6.69
C      12.84      18.92       3.43
C      12.84      10.44      16.15
C      21.99      13.16      14.22
C      14.60      12.17      13.56
C      23.75      11.43      16.82
C      25.66      18.43       4.79
C      16.51      18.68       5.33
C      20.08      18.25       5.05
C      10.93      18.85       5.07
C      10.93      11.92      15.46
C      20.08      11.68      14.91
C      16.51      12.10      15.20
C      25.66      11.50      15.18
C      24.04      19.15       1.43
C      14.90      17.96       8.69
C      21.69      15.43       7.01
C      12.54      21.68       3.12
C      12.54      11.20      18.82
C      21.69      12.39      11.56
C      14.90      14.92      13.24
C      24.04       8.68      17.13
C      32.08      29.78      19.87
C      13.79      15.75      10.51
C      22.80      14.60       9.74
C       4.51       0.58       0.38
C      24.72      18.98       3.75
C      15.58      18.13       6.37
C      21.01      17.51       5.95
C      11.86      19.60       4.17
C      11.86      11.38      16.49
C      21.01      12.22      13.88
C      15.58      12.84      14.29
C      24.72      10.75      16.08
C      24.85      18.58       2.41
C      15.70      18.52       7.71
C      20.88      16.12       6.11
C      11.73      20.99       4.02
C      11.73      11.77      17.83
C      20.88      11.83      12.54
C      15.70      14.23      14.14
C      24.85       9.37      16.23
C      22.92      20.46       3.12
C      13.77      16.65       7.00
C      22.81      17.49       7.57
C      13.67      19.62       2.56
C      13.67       9.89      17.13
C      22.81      13.70      13.24
C      13.77      12.86      12.68
C      22.92      10.74      17.69
C       9.70      12.41       3.04
C      18.84      24.70       7.08
C      17.74      14.33       0.17
C      26.89      22.78       9.96
C      26.89      17.94      17.21
C      17.74       5.66      13.17
C      18.84      16.02      20.08
C       9.70       7.58      10.29
C       9.78      11.18       2.23
C       9.78       4.00       7.89
C      26.80      21.53      19.59
C      26.81      24.00      10.78
C      26.81      19.17      18.02
C      26.80      26.36      12.36
C       9.78       8.82       0.66
C       9.78       6.35       9.47
C       9.92      11.24       0.83
C       9.92       3.93       9.29
C      26.66      20.27      20.19
C      26.66      25.26      10.19
C      26.66      19.11      19.41
C      26.66      26.42      10.96
C       9.92      10.09       0.06
C       9.92       5.09      10.06
C      10.02      13.63       5.11
C      19.17      23.48       5.01
C      17.41      16.70       0.49
C      26.56      20.40       9.63
C      26.56      16.73      15.14
C      17.41       6.87      15.23
C      19.17      13.65      19.75
C      10.02       9.95      10.62
C       9.04      14.72       3.32
C      18.19      22.39       6.81
C      18.40      15.47       2.19
C      27.54      21.64       7.93
C      27.54      15.63      16.93
C      18.40       7.97      13.44
C      18.19      14.88      18.06
C       9.04       8.72      12.32
C       9.13      13.59       2.52
C      18.28      23.52       7.60
C      18.31      14.30       1.45
C      27.45      22.81       8.67
C      27.45      16.77      17.73
C      18.31       6.83      12.65
C      18.28      16.05      18.80
C       9.13       7.55      11.58
C      10.15      12.45       4.37
C      10.15       2.72       5.75
C      26.43      24.00      19.94
C      26.43      21.53      10.43
C      26.43      17.90      15.88
C      26.43      27.63      14.50
C      10.15       6.36       0.31
C      10.15       8.82       9.82
C       9.68       9.91       2.83
C       9.68       5.26       7.29
C      26.90      21.60      18.19
C      26.91      23.93      12.18
C      26.91      20.44      17.42
C      26.90      25.09      12.96
C       9.68       8.76       2.06
C       9.68       6.42       8.07
N       9.48      14.74       4.59
N      18.63      22.37       5.53
N      17.96      16.65       1.72
N      27.11      20.45       8.40
N      27.11      15.61      15.66
N      17.96       7.99      14.72
N      18.63      13.70      18.53
N       9.48       9.90      11.85
O      19.56      21.32       2.82
O      10.41      15.79       7.31
O      26.18      17.54       8.47
O      17.03      19.56       1.65
O      17.03       9.04      17.43
O      26.18      14.56      12.94
O      10.41      12.81      11.77
O      19.56      10.79      18.60
O      26.41      17.46       4.42
O      17.26      19.65       5.70
O      19.33      17.54       4.30
O      10.18      19.56       5.83
O      10.18      12.89      15.82
O      19.33      10.70      14.55
O      17.26      12.81      15.95
O      26.41      10.79      14.42
O      19.85      19.24       1.96
O      10.70      17.87       8.17
O      25.88      15.95       6.88
O      16.73      21.16       3.24
O      16.73      11.12      18.29
O      25.88      12.48      12.08
O      10.70      14.40      13.36
O      19.85       9.19      17.01
O      25.66      18.97       5.94
O      16.52      18.13       4.18
O      20.07      19.53       5.11
O      10.92      17.58       5.01
O      10.92      11.38      14.31
O      20.07      12.22      16.06
O      16.52      10.83      15.14
O      25.66      12.77      15.24
