68

Zn       2.77       8.89       0.03
Zn       5.72       8.81      17.67
Zn       5.66      17.69       8.83
Zn       2.69       0.05       8.91
C       3.84       7.08      15.94
C       4.80      10.64      15.92
C       3.79      10.65       1.79
C       4.53       7.04       1.77
C       4.65      15.93       7.07
C       3.88      15.95      10.67
C       4.56       1.79      10.65
C       3.61       1.80       7.08
C       5.63      12.42      14.20
C       3.04      14.18      12.39
C       4.67      11.68      14.89
C       4.00      14.91      11.70
C       3.63      13.27      13.30
C       5.04      13.33      13.29
C       5.36       5.33       3.55
C       2.77       3.52       5.31
C       4.41       6.02       2.81
C       3.73       2.83       6.04
C       3.36       4.43       4.40
C       4.77       4.42       4.46
C       5.15      12.19       3.34
C       3.30      14.38       5.53
C       3.96      11.68       2.82
C       4.49      14.89       6.04
C       3.54      13.39       4.54
C       4.91      13.17       4.33
C       2.94       5.34      14.21
C       5.47       3.52      12.38
C       3.92       6.04      14.90
C       4.49       2.82      11.69
C       4.91       4.44      13.30
C       3.51       4.43      13.29
S       3.04      12.11      14.43
S       5.63      14.48      12.16
S       2.78       5.55       3.23
S       5.36       3.30       5.62
S       2.55      12.40       3.55
S       5.90      14.17       5.32
S       5.53       5.57      14.43
S       2.88       3.30      12.16
Cl       7.32      12.27      14.40
Cl       1.35      14.32      12.18
Cl       7.05       5.54       3.41
Cl       1.08       3.31       5.45
Cl       6.75      11.76       2.91
Cl       1.70      14.81       5.95
Cl       1.26       5.54      14.40
Cl       7.15       3.31      12.18
O       2.71       7.51      16.37
O       4.99       7.48      16.34
O       5.95      10.22      16.28
O       3.67      10.22      16.37
O       4.87      10.17       1.31
O       2.60      10.30       1.44
O       3.41       7.49       1.35
O       5.68       7.41       1.35
O       5.84      16.28       7.42
O       3.58      16.41       7.55
O       2.72      16.37      10.29
O       5.00      16.36      10.22
O       3.41       1.39      10.25
O       5.69       1.36      10.22
O       4.73       1.36       7.51
O       2.45       1.43       7.50
