160

Zn       2.29      22.49      12.90
Zn       0.14       1.55      10.75
Zn       2.20      13.53      22.62
Zn       1.94      10.13       0.83
H      18.32      16.22      22.06
H      18.33      17.93      20.19
H      17.74      20.83      17.50
H       3.45      18.24      15.65
H      17.31       9.66       3.07
H      16.96       7.99       4.94
H      15.98       5.84       8.14
H       2.12       3.72       6.46
H       4.36       1.86      10.42
H       6.87       1.78      10.46
H      10.64       2.62      10.23
H      12.81      21.95      12.90
H       2.26      12.86       4.12
H       2.23      14.73       5.81
H       2.56      16.88       8.93
H      18.93      19.76       5.82
H       1.11      10.98      19.41
H      17.53       9.26      17.78
H      17.05       7.17      14.64
H      16.52       4.32      17.84
H       6.38      13.73      22.19
H       8.90      13.77      22.29
H      12.71      13.63      21.36
H      12.40      10.66       1.56
C       4.96      23.34      12.00
C       2.35      21.42      10.18
C      17.08      23.48      11.62
C      17.15       2.60      13.50
C       2.11      13.00       1.47
C      16.75      12.93      23.66
C       1.57      10.73      22.01
C       4.66      12.42      23.74
C       1.62      16.06      21.13
C      18.88      16.99      20.11
C       2.37      16.71      18.94
C       3.06      15.50      18.86
C       2.98      14.62      19.95
C      18.42      20.58      16.69
C       1.96      19.43      16.72
C       2.83      19.13      15.66
C       2.85      20.04      14.61
C      18.54      21.40      15.58
C      17.96       8.80       3.22
C      17.77       7.89       4.23
C       1.40       6.79       4.34
C       2.43       6.67       3.39
C       2.55       7.65       2.40
C      16.69       5.02       8.14
C      17.68       4.90       7.17
C       1.34       3.83       7.20
C       1.18       2.92       8.23
C      16.64       4.02       9.11
C       6.46      23.29      12.10
C       4.89       1.27      11.17
C       6.27       1.23      11.19
C       9.30      23.20      12.16
C       8.53      22.49      13.10
C       7.13      22.53      13.07
C      11.14       1.85      10.81
C      10.39       0.93      11.57
C      13.39      22.67      12.32
C      14.77      22.62      12.30
C      13.22       0.79      11.57
C      12.52       1.76      10.83
C       2.06      14.15       2.43
C       2.16      13.90       3.81
C       2.14      14.93       4.74
C       1.99      16.27       4.33
C       1.87      16.52       2.95
C       1.91      15.48       2.02
C       2.39      17.91       8.62
C       2.12      18.21       7.27
C      19.14      19.53       6.87
C      19.21      20.53       7.82
C       2.25      20.30       9.18
C       2.45      18.95       9.53
C       1.00       9.68      21.11
C      18.08       9.98      19.74
C      17.62       9.04      18.84
C      17.27       7.75      19.28
C      17.37       7.46      20.65
C      17.86       8.41      21.55
C      16.95       6.14      14.98
C      16.79       5.86      16.34
C      16.65       4.54      16.78
C      16.73       3.52      15.85
C      16.96       3.73      14.47
C      17.04       5.09      14.08
C       6.16      12.36      23.82
C       6.93      13.14      22.92
C       8.31      13.16      22.97
C       8.95      10.80       0.05
C       8.19      10.02       0.94
C       6.80      10.00       0.87
C      13.20      13.35      22.29
C      12.43      12.93      23.38
C      13.00      10.97       0.70
C      14.38      11.01       0.77
C      15.25      12.99      23.58
C      14.58      13.36      22.41
N       2.30      14.89      21.04
N       2.49      17.55      17.81
N      19.05      18.61      17.87
N      19.36      21.16      14.55
N       1.73       8.69       2.32
N       1.35       5.77       5.32
N      17.70       5.94       6.19
N      17.48       2.99       9.18
N      10.69      23.06      12.26
N       8.99       1.10      11.50
N       1.96      17.38       5.18
N       2.12      17.09       6.41
N      16.96       6.67      18.43
N      16.90       6.98      17.20
N      10.34      10.78       0.22
N      11.04      12.92      23.17
O       4.31      22.41      12.56
O       2.12       1.58      11.33
O       2.84      22.51       9.76
O      19.18      21.17      11.36
O      15.36       1.11      10.59
O      17.58      23.09      12.72
O       0.28       1.49      13.99
O      16.92       2.85      12.27
O       2.50      13.24       0.29
O       1.77      11.87       1.94
O      17.18      10.34       0.40
O      17.41      13.85      23.09
O       2.01      10.38      23.15
O       1.56      11.92      21.55
O       4.17      12.95      22.69
O       3.96      10.37       0.83
F       3.63      13.45      19.87
F       3.79      15.16      17.79
F      17.81      22.51      15.50
F       3.64      19.81      13.56
F       3.52       7.54       1.50
F       3.30       5.66       3.42
F      15.71       4.09      10.05
F       2.01       1.88       8.32
F       6.48      21.83      14.03
F       9.12      21.75      14.06
F      13.21       2.68      10.12
F      15.36      21.63      13.01
F       1.77      15.82       0.71
F      18.96      17.78       2.49
F       2.74      18.63      10.82
F      18.96      21.80       7.41
F      17.93       8.04      22.85
F      17.03       6.24      21.12
F      17.26       5.41      12.78
F      16.58       2.26      16.32
F       6.16       9.20       1.76
F       8.80       9.25       1.86
F      15.30      13.72      21.31
F      14.96      10.68       1.95
