67

Al       4.60      15.96      13.94
H       2.60      15.96       2.20
H       2.88      18.09       5.91
H       2.33      13.83       5.91
H       1.46      14.30       1.48
H       3.38      12.31       4.78
H       3.13       1.66       1.48
H       1.21       3.66       4.78
H       1.72      17.92       7.75
H       3.49      14.01       7.75
H       2.95       9.67       4.76
H       3.27       8.92       3.18
H       0.52       9.93       3.94
H       2.13      20.90      13.13
H       1.61      19.21      13.31
H       4.52      20.52      13.80
H       3.07      11.03      13.13
H       3.59      12.72      13.31
H       0.68      11.41      13.80
H       1.64       6.29       4.76
H       1.32       7.05       3.18
H       4.08       6.03       3.94
H       4.60      18.16      10.82
H       2.26      18.69      11.14
H       1.47      19.13       9.60
H       0.60      13.76      10.82
H       2.95      13.24      11.14
H       3.73      12.80       9.60
C       2.28       6.21       1.03
C       2.60      15.96      11.88
C       2.32       9.76       1.03
C       2.70      17.18       3.97
C       2.60      15.96       3.29
C       2.50      14.74       3.97
C       2.48      14.76       5.37
C       2.60      15.96       6.08
C       2.73      17.16       5.37
C       1.85      12.21       1.20
C       1.89      13.40       1.93
C       2.43      13.46       3.23
C       2.92      12.28       3.79
C       2.88      11.06       3.11
C       2.35      11.04       1.81
C       2.71       2.56       1.93
C       2.74       3.75       1.20
C       2.25       4.92       1.81
C       1.72       4.90       3.11
C       1.68       3.69       3.79
C       2.17       2.50       3.23
C       2.12      17.06       8.29
C       2.10      17.09       9.68
C       2.60      15.96      10.39
C       3.10      14.84       9.68
C       3.08      14.86       8.29
C       2.60      15.96       7.56
C       3.43       9.82       3.78
C       1.58      20.20      13.78
C       3.62      11.73      13.78
C       1.17       6.14       3.78
C       1.58      18.33      10.35
C       3.62      13.59      10.35
O       3.25       9.57       0.18
O       3.23       7.02       1.26
O       3.54      15.34      12.49
O       1.37       8.94       1.26
O       1.67      16.59      12.49
O       1.35       6.40       0.18
