75

Zn       6.47       8.66       6.84
Zn       6.53       5.81       6.47
H       1.96       8.63       4.82
H       7.30       4.39       4.17
H      11.02       9.41       6.90
H       8.16      12.79       4.30
H       7.04       2.16       3.05
H       5.01       4.23       8.12
H       1.80       7.99       8.75
H      11.04       5.67       8.31
H       2.00       4.89       6.24
H      11.22       6.30       4.37
H       8.37       4.97      10.48
H       6.33       8.69      10.97
H       9.11       4.24       1.72
H       9.14       5.07      12.86
H       8.77      10.04       6.30
H       8.09      10.73       4.83
H       9.29      11.67       5.77
H       5.36       9.77       2.77
H       5.96      10.26      12.10
H       5.03      10.02       0.30
H       8.25       5.99       3.23
H       5.08      10.32       8.74
H       3.62       2.56       9.30
H       4.99      12.71       9.53
C       6.49       7.78       4.09
C       6.77       7.07       0.32
C       7.05       6.99       1.72
C       9.09       7.05       6.49
C       7.32       7.98      12.77
C       8.13       6.93      13.30
C       8.42       5.00       1.34
C       7.94       5.96       2.18
C       6.94       7.92      11.42
C       8.09       5.80      11.13
C       6.47       7.95       2.59
C       1.58       5.89       6.38
C       5.63      12.41       8.69
C       6.81       3.56       4.68
C       6.68       2.30       4.07
C       6.84       6.86       9.18
C       6.08       1.28       4.78
C       5.60       1.50       6.09
C       5.65       2.84       6.58
C       7.18      12.97       6.90
C       6.39      13.38       8.01
C       4.20       2.27       8.43
C      11.55       6.68       5.35
C       4.96       3.20       7.78
C       7.34      11.56       6.68
C       5.69      11.10       8.29
C       3.92       7.25       6.69
C      11.44       8.41       6.75
C       1.55       7.97       5.59
C       2.44       7.18       6.62
C       1.46       7.62       7.78
C      11.46       6.33       7.53
C       8.44      10.99       5.84
C      10.58       7.13       6.50
C       8.51       5.86      12.45
C       7.30       6.85      10.61
C       5.78       9.04       2.08
C       5.58       9.16       0.69
C       6.15      10.17      13.16
N       6.57      10.68       7.34
N       6.30       3.82       5.88
O       6.65       8.83       4.79
O       6.28       6.60       4.53
O       8.46       8.06       6.95
O       8.56       5.97       6.06
O       6.31       7.94       8.77
O       7.01       5.80       8.49
O       4.45       8.42       6.63
O       4.55       6.15       6.82
