92

Zn      10.75       8.68       9.41
Zn       7.97       8.56       9.61
H      11.67       9.26      13.57
H       6.96       8.90       5.42
H      11.80       9.72      16.03
H       6.81       9.27       2.95
H       7.54       9.20      16.34
H      11.10       9.30       2.70
H       7.43       8.70      13.88
H      11.24       8.89       5.17
H       7.74       4.19       8.98
H      10.92      13.11       8.78
H       7.81      12.46      11.66
H      11.20       4.74      11.45
H      11.08       2.36      12.18
H       7.99      14.83      12.42
H      11.04      15.51       9.43
H       7.67       1.78       9.59
H       5.75       9.83       8.15
H      12.97       7.40      10.83
H      12.76      10.28       7.86
H       5.95       7.03      11.19
H      17.41       9.80       8.48
H       1.30       7.54      10.58
H       3.45       6.89      11.34
H      15.26      10.46       7.74
H      15.46       7.46      10.86
H       3.27       9.83       8.16
C       9.52       6.05       9.77
C       9.28      11.21       9.75
C       9.47       8.72      12.11
C       9.20       8.72       6.93
C      10.78       9.23      14.19
C       7.86       8.99       4.81
C      10.85       9.49      15.56
C       7.78       9.19       3.44
C       9.68       9.49      16.34
C       8.95       9.32       2.67
C       8.44       9.20      15.73
C      10.20       9.20       3.30
C       8.38       8.92      14.37
C      10.28       8.98       4.67
C       9.54       8.95      13.59
C       9.11       8.89       5.44
C       8.86       9.56       1.23
C       9.75       9.78      17.77
C       9.47       4.60      10.17
C       9.36      12.65      10.18
C       8.46       3.77       9.68
C      10.29      13.50       9.57
C       8.41       2.44      10.04
C      10.36      14.83       9.96
C       9.35       1.91      10.95
C       9.55      15.33      10.99
C      10.35       2.75      11.47
C       8.63      14.46      11.61
C      10.42       4.08      11.07
C       8.53      13.14      11.20
C       9.30       0.48      11.25
C       9.62      16.75      11.31
C       5.19       9.20       8.84
C      13.53       8.06      10.16
C       3.81       9.19       8.86
C      14.91       8.10      10.16
C       3.13       8.36       9.77
C      15.59       8.97       9.28
C       3.92       7.56      10.62
C      14.79       9.77       8.44
C       5.30       7.63      10.55
C      13.41       9.67       8.50
C       1.67       8.29       9.87
C      17.04       9.05       9.18
N       8.59       9.92      18.47
N      10.00       9.79       0.53
N       7.63       9.68       0.66
N      10.95      10.02      18.33
N       5.93       8.44       9.68
N      12.79       8.83       9.34
N       6.88       0.36      11.57
N      12.05      16.87      11.36
O      10.63       6.65       9.86
O       8.19      10.59      10.00
O       8.42       6.56       9.38
O      10.32      10.72       9.20
O      10.52       8.99      11.44
O       8.12       8.88       7.59
O       8.36       8.31      11.63
O      10.34       8.46       7.42
O       7.38      17.15      10.81
O       6.82       1.11      12.56
O      12.89      17.12      10.48
O      12.24      16.14      12.35
