304

In       0.03       0.03      25.40
In       0.04      18.61      21.77
In       5.92       9.34      25.40
In       5.93       9.27      18.14
In       5.94       9.30      21.77
In       0.03      18.57      18.14
In      11.76      18.58       3.63
In      11.76      -0.00       7.26
In       5.87       9.27       3.63
In       5.87       9.34      10.88
In       5.86       9.30       7.25
In      11.77       0.03      10.88
In       5.90       9.30      29.03
In      11.79      18.61      14.51
In      -0.00      -0.01      29.03
In       5.90       9.30      14.51
H       8.97      15.49       0.27
H       7.79      13.27       0.35
H       8.15      12.92      25.11
H       9.33      15.13      25.04
H       3.37      12.76      21.40
H       2.19      14.98      21.47
H       1.99      14.75      25.75
H       3.17      12.52      25.69
H       9.60       3.77       0.36
H       8.42       5.99       0.29
H       8.71       6.01      25.04
H       9.89       3.79      25.10
H       3.88       5.61      21.47
H       2.71       3.39      21.40
H       2.64       3.30      25.70
H       3.81       5.52      25.77
H       9.94      18.26      23.59
H       1.70      17.72      27.21
H       7.81       8.94      23.60
H       4.22       8.41      27.19
H       3.07      12.43      14.24
H       1.89      14.65      14.16
H       2.25      15.00      18.43
H       3.43      12.78      18.50
H       9.26      15.15      22.14
H       8.09      12.93      22.07
H       7.89      13.16      17.78
H       9.07      15.39      17.85
H       3.70       5.54      14.16
H       2.52       3.32      14.22
H       2.82       3.28      18.50
H       3.99       5.50      18.44
H       9.78       3.68      22.07
H       8.61       5.90      22.14
H       8.54       6.00      17.84
H       9.71       3.77      17.77
H       4.04       9.65      19.95
H       7.60      10.19      16.33
H       1.91       0.36      19.94
H      10.12       0.89      16.35
H       2.83       3.12      28.75
H       4.01       5.34      28.67
H       3.65       5.69       3.91
H       2.46       3.48       3.99
H       8.43       5.85       7.62
H       9.60       3.62       7.55
H       9.80       3.86       3.27
H       8.62       6.08       3.34
H       2.20      14.84      28.67
H       3.37      12.62      28.73
H       3.08      12.60       3.99
H       1.91      14.82       3.93
H       7.91      12.99       7.55
H       9.08      15.22       7.62
H       9.16      15.31       3.33
H       7.98      13.09       3.26
H       1.86       0.35       5.44
H      10.09       0.89       1.81
H       3.98       9.67       5.43
H       7.57      10.20       1.84
H       8.72       6.17      14.79
H       9.91       3.96      14.87
H       9.54       3.61      10.60
H       8.36       5.83      10.52
H       2.53       3.45       6.89
H       3.70       5.68       6.96
H       3.90       5.44      11.24
H       2.73       3.22      11.18
H       8.09      13.07      14.87
H       9.27      15.29      14.81
H       8.98      15.32      10.52
H       7.80      13.10      10.58
H       2.01      14.93       6.96
H       3.18      12.71       6.89
H       3.26      12.61      11.18
H       2.09      14.83      11.25
H       7.75       8.96       9.07
H       4.19       8.41      12.70
H       9.88      18.25       9.09
H       1.67      17.72      12.68
C       9.97      16.72      27.13
C       9.21      15.43      27.16
C       8.78      14.91      28.39
C       8.13      13.68      28.44
C       7.91      12.95      27.25
C       8.33      13.49      26.02
C       8.98      14.71      25.98
C       7.23      11.62      27.29
C       4.13      11.25      23.51
C       3.34      12.52      23.54
C       3.06      13.20      22.35
C       2.41      14.43      22.39
C       2.05      15.00      23.62
C       2.30      14.30      24.81
C       2.95      13.07      24.77
C       1.41      16.35      23.65
C      10.49       2.31      27.27
C       9.80       3.64      27.24
C       9.40       4.26      28.44
C       8.75       5.49      28.40
C       8.50       6.12      27.18
C       8.92       5.51      25.98
C       9.56       4.28      26.02
C       7.75       7.41      27.15
C       4.55       7.04      23.65
C       3.90       5.70      23.62
C       3.61       5.09      22.39
C       2.97       3.86      22.35
C       2.61       3.22      23.55
C       2.92       3.81      24.78
C       3.57       5.04      24.82
C       1.83       1.94      23.52
C       4.07      11.19      16.41
C       3.32      12.48      16.38
C       2.88      13.00      15.15
C       2.23      14.23      15.10
C       2.01      14.96      16.29
C       2.43      14.43      17.52
C       3.08      13.20      17.56
C       1.34      16.29      16.25
C      10.02      16.66      20.02
C       9.24      15.39      20.00
C       8.95      14.71      21.19
C       8.31      13.48      21.15
C       7.95      12.91      19.92
C       8.20      13.61      18.73
C       8.84      14.84      18.77
C       7.30      11.56      19.89
C       4.59       6.98      16.27
C       3.91       5.65      16.30
C       3.50       5.03      15.10
C       2.86       3.80      15.14
C       2.61       3.17      16.36
C       3.02       3.78      17.56
C       3.67       5.02      17.52
C       1.86       1.88      16.39
C      10.45       2.25      19.89
C       9.80       3.60      19.92
C       9.51       4.20      21.15
C       8.86       5.43      21.19
C       8.50       6.07      19.99
C       8.82       5.48      18.76
C       9.46       4.25      18.72
C       7.73       7.35      20.02
C       1.82       1.89       1.89
C       2.58       3.18       1.86
C       3.01       3.70       0.63
C       3.66       4.93       0.59
C       3.88       5.65       1.77
C       3.46       5.12       3.00
C       2.81       3.89       3.05
C       4.56       6.99       1.74
C       7.67       7.36       5.51
C       8.45       6.08       5.48
C       8.74       5.40       6.68
C       9.38       4.17       6.64
C       9.75       3.61       5.41
C       9.49       4.31       4.22
C       8.85       5.54       4.25
C      10.39       2.26       5.38
C       1.31      16.30       1.75
C       1.99      14.96       1.78
C       2.39      14.35       0.59
C       3.04      13.12       0.62
C       3.29      12.49       1.85
C       2.88      13.10       3.04
C       2.23      14.33       3.01
C       4.04      11.19       1.88
C       7.24      11.56       5.37
C       7.89      12.91       5.40
C       8.18      13.51       6.64
C       8.83      14.74       6.67
C       9.19      15.39       5.48
C       8.87      14.80       4.25
C       8.23      13.56       4.21
C       9.96      16.67       5.51
C       7.72       7.42      12.62
C       8.48       6.13      12.65
C       8.91       5.60      13.88
C       9.56       4.37      13.92
C       9.78       3.65      12.74
C       9.36       4.18      11.51
C       8.71       5.41      11.47
C      10.46       2.32      12.78
C       1.77       1.95       9.00
C       2.55       3.22       9.03
C       2.84       3.90       7.84
C       3.49       5.13       7.87
C       3.85       5.69       9.10
C       3.60       5.00      10.30
C       2.95       3.77      10.26
C       4.49       7.05       9.14
C       7.20      11.62      12.76
C       7.89      12.96      12.73
C       8.29      13.57      13.92
C       8.94      14.80      13.89
C       9.19      15.43      12.66
C       8.78      14.82      11.47
C       8.13      13.59      11.50
C       9.94      16.73      12.63
C       1.34      16.36       9.14
C       2.00      15.01       9.11
C       2.29      14.41       7.88
C       2.93      13.18       7.84
C       3.29      12.53       9.03
C       2.97      13.12      10.27
C       2.33      14.36      10.30
C       4.06      11.25       9.00
O      10.73       0.21      23.58
O       1.12      18.50      27.22
O       7.03       9.52      23.59
O       4.80       9.19      27.21
O      10.26      17.24      28.26
O      10.27      17.20      25.98
O       6.98      11.12      28.44
O       6.97      11.09      26.16
O       4.45      10.76      24.64
O       4.43      10.77      22.37
O       1.15      16.88      22.53
O       1.18      16.86      24.80
O      10.79       1.80      26.15
O      10.71       1.80      28.42
O       7.49       7.91      26.00
O       7.43       7.92      28.27
O       4.77       7.56      24.80
O       4.83       7.57      22.53
O       1.55       1.46      22.37
O       1.51       1.44      24.64
O       4.83       9.08      19.96
O       7.02       9.41      16.32
O       1.13      18.39      19.95
O      10.70       0.10      16.33
O       4.37      10.67      15.28
O       4.37      10.71      17.56
O       1.08      16.79      15.10
O       1.07      16.82      17.37
O      10.35      17.15      18.90
O      10.32      17.14      21.17
O       7.05      11.03      21.01
O       7.07      11.05      18.74
O       4.89       7.50      17.39
O       4.81       7.50      15.12
O       1.59       1.39      17.54
O       1.53       1.38      15.27
O      10.67       1.73      18.74
O      10.72       1.73      21.01
O       7.45       7.84      21.17
O       7.40       7.85      18.90
O       1.06      18.40       5.45
O      10.67       0.11       1.81
O       4.76       9.09       5.44
O       6.99       9.42       1.82
O       1.53       1.37       0.77
O       1.53       1.41       3.04
O       4.82       7.49       0.59
O       4.82       7.52       2.86
O       7.34       7.85       4.39
O       7.37       7.83       6.66
O      10.64       1.72       6.50
O      10.62       1.75       4.23
O       1.01      16.81       2.88
O       1.09      16.81       0.60
O       4.31      10.70       3.03
O       4.36      10.69       0.76
O       7.03      11.05       4.22
O       6.97      11.04       6.50
O      10.24      17.15       6.66
O      10.29      17.16       4.39
O       6.96       9.52       9.07
O       4.78       9.19      12.70
O      10.66       0.22       9.07
O       1.09      18.50      12.69
O       7.43       7.93      13.75
O       7.43       7.90      11.47
O      10.71       1.82      13.93
O      10.72       1.78      11.65
O       1.45       1.45      10.13
O       1.47       1.47       7.85
O       4.74       7.58       8.01
O       4.72       7.55      10.29
O       6.90      11.11      11.64
O       6.98      11.11      13.91
O      10.20      17.22      11.48
O      10.26      17.23      13.76
O       1.13      16.87      10.29
O       1.07      16.88       8.01
O       4.35      10.77       7.85
O       4.39      10.76      10.13
