408

Zn       1.97      11.89       3.48
Zn       2.89      11.77      24.34
Zn       6.83      23.60      17.38
Zn       7.75       0.06      38.24
Zn       7.75      11.77      38.24
Zn       6.83      11.89      17.38
Zn       2.89       0.06      24.34
Zn       1.97      23.60       3.48
Zn       2.91       8.89      40.09
Zn       1.95      14.77      19.23
Zn       7.78       2.94      22.49
Zn       6.81      20.72       1.63
Zn       6.81      14.77       1.63
Zn       7.78       8.89      22.49
Zn       1.95      20.72      19.23
Zn       2.91       2.94      40.09
Zn       1.99       8.91       8.68
Zn       2.87      14.75      29.54
Zn       6.85       2.92      12.18
Zn       7.73      20.74      33.04
Zn       7.73      14.75      33.04
Zn       6.85       8.91      12.18
Zn       2.87      20.74      29.54
Zn       1.99       2.92       8.68
H       1.95      11.26       0.31
H       2.91      12.40      21.17
H       6.81       0.57      20.55
H       7.77      23.09      41.41
H       7.77      12.40      41.41
H       6.81      11.26      20.55
H       2.91      23.09      21.17
H       1.95       0.57       0.31
H       3.61       7.50       1.21
H       1.25      16.16      22.07
H       8.47       4.33      19.65
H       6.11      19.33      40.51
H       6.11      16.16      40.51
H       8.47       7.50      19.65
H       1.25      19.33      22.07
H       3.61       4.33       1.21
H       3.20       8.90       3.57
H       1.66      14.76      24.43
H       8.06       2.93      17.29
H       6.52      20.73      38.15
H       6.52      14.76      38.15
H       8.06       8.90      17.29
H       1.66      20.73      24.43
H       3.20       2.93       3.57
H       1.19       9.62       5.64
H       3.67      14.04      26.50
H       6.05       2.21      15.22
H       8.53      21.45      36.08
H       8.53      14.04      36.08
H       6.05       9.62      15.22
H       3.67      21.45      26.50
H       1.19       2.21       5.64
H       3.94      11.43       8.27
H       0.92      12.23      29.13
H       8.80       0.40      12.59
H       5.79      23.26      33.45
H       5.79      12.23      33.45
H       8.80      11.43      12.59
H       0.92      23.26      29.13
H       3.94       0.40       8.27
H       3.91      12.83       5.87
H       0.95      10.83      26.73
H       8.77      22.66      15.00
H       5.81       1.00      35.86
H       5.81      10.83      35.86
H       8.77      12.83      15.00
H       0.95       1.00      26.73
H       3.91      22.66       5.87
H       4.65      12.44       1.89
H       0.21      11.22      22.75
H       9.51      23.05      18.97
H       5.07       0.61      39.83
H       5.07      11.22      39.83
H       9.51      12.44      18.97
H       0.21       0.61      22.75
H       4.65      23.05       1.89
H       4.42      16.48       3.07
H       0.44       7.18      23.94
H       9.28      19.01      17.79
H       5.31       4.65      38.65
H       5.31       7.18      38.65
H       9.28      16.48      17.79
H       0.44       4.65      23.94
H       4.42      19.01       3.07
H       2.12      15.14       3.91
H       2.74       8.52      24.77
H       6.99      20.35      16.95
H       7.60       3.31      37.81
H       7.60       8.52      37.81
H       6.99      15.14      16.95
H       2.74       3.31      24.77
H       2.12      20.35       3.91
H       9.64      10.08      40.16
H       4.94      13.58      19.30
H       4.78       1.75      22.42
H       0.08      21.91       1.56
H       0.08      13.58       1.56
H       4.78      10.08      22.42
H       4.94      21.91      19.30
H       9.64       1.75      40.16
H       0.81      12.05      36.54
H       4.05      11.61      15.68
H       5.67      23.44      26.04
H       8.91       0.22       5.18
H       8.91      11.61       5.18
H       5.67      12.05      26.04
H       4.05       0.22      15.68
H       0.81      23.44      36.54
H       3.09      10.75      37.46
H       1.78      12.91      16.60
H       7.95       1.08      25.12
H       6.64      22.58       4.26
H       6.64      12.91       4.26
H       7.95      10.75      25.12
H       1.78      22.58      16.60
H       3.09       1.08      37.46
H       4.76       7.85       9.97
H       0.10      15.81      30.83
H       9.62       3.98      10.89
H       4.96      19.68      31.75
H       4.96      15.81      31.75
H       9.62       7.85      10.89
H       0.10      19.68      30.83
H       4.76       3.98       9.97
H       4.41      10.95      12.80
H       0.45      12.71      33.66
H       9.27       0.88       8.06
H       5.31      22.78      28.92
H       5.31      12.71      28.92
H       9.27      10.95       8.06
H       0.45      22.78      33.66
H       4.41       0.88      12.80
H       2.15      10.92      11.17
H       2.71      12.74      32.03
H       7.01       0.91       9.69
H       7.57      22.75      30.55
H       7.57      12.74      30.55
H       7.01      10.92       9.69
H       2.71      22.75      32.03
H       2.15       0.91      11.17
H       3.67       5.91      40.93
H       1.20      17.74      20.07
H       8.53       5.91      21.65
H       6.06      17.74       0.79
H       0.77       7.31      38.21
H       4.09      16.35      17.35
H       5.63       4.52      24.37
H       8.95      19.14       3.51
H       8.95      16.35       3.51
H       5.63       7.31      24.37
H       4.09      19.14      17.35
H       0.77       4.52      38.21
H       1.71       5.91       9.79
H       3.15      17.74      30.65
H       6.57       5.91      11.07
H       8.01      17.74      31.93
H       2.88       7.30       5.99
H       1.99      16.36      26.85
H       7.74       4.53      14.87
H       6.85      19.13      35.73
H       6.85      16.36      35.73
H       7.74       7.30      14.87
H       1.99      19.13      26.85
H       2.88       4.53       5.99
C       2.35      10.42       0.88
C       2.52      13.24      21.74
C       7.21       1.41      19.98
C       7.38      22.25      40.84
C       7.38      13.24      40.84
C       7.21      10.42      19.98
C       2.52      22.25      21.74
C       2.35       1.41       0.88
C       3.20       8.49       1.37
C       1.66      15.17      22.23
C       8.07       3.34      19.49
C       6.52      20.32      40.35
C       6.52      15.17      40.35
C       8.07       8.49      19.49
C       1.66      20.32      22.23
C       3.20       3.34       1.37
C       3.00       9.18       2.54
C       1.87      14.48      23.40
C       7.86       2.65      18.32
C       6.73      21.01      39.18
C       6.73      14.48      39.18
C       7.86       9.18      18.32
C       1.87      21.01      23.40
C       3.00       2.65       2.54
C       1.94      10.31       6.03
C       2.92      13.35      26.89
C       6.80       1.52      14.83
C       7.78      22.14      35.69
C       7.78      13.35      35.69
C       6.80      10.31      14.83
C       2.92      22.14      26.89
C       1.94       1.52       6.03
C       3.37      11.26       7.37
C       1.50      12.40      28.23
C       8.23       0.57      13.49
C       6.36      23.09      34.35
C       6.36      12.40      34.35
C       8.23      11.26      13.49
C       1.50      23.09      28.23
C       3.37       0.57       7.37
C       3.35      11.96       6.17
C       1.51      11.70      27.03
C       8.21      23.53      14.69
C       6.37       0.13      35.55
C       6.37      11.70      35.55
C       8.21      11.96      14.69
C       1.51       0.13      27.03
C       3.35      23.53       6.17
C       4.27      13.37       2.33
C       0.59      10.29      23.19
C       9.14      22.12      18.53
C       5.45       1.54      39.39
C       5.45      10.29      39.39
C       9.14      13.37      18.53
C       0.59       1.54      23.19
C       4.27      22.12       2.33
C       4.12      15.44       2.95
C       0.74       8.22      23.81
C       8.99      20.05      17.91
C       5.60       3.61      38.77
C       5.60       8.22      38.77
C       8.99      15.44      17.91
C       0.74       3.61      23.81
C       4.12      20.05       2.95
C       2.99      14.78       3.37
C       1.87       8.88      24.23
C       7.85      20.71      17.49
C       6.73       2.95      38.35
C       6.73       8.88      38.35
C       7.85      14.78      17.49
C       1.87       2.95      24.23
C       2.99      20.71       3.37
C       0.48      10.45      39.30
C       4.39      13.21      18.44
C       5.34       1.38      23.28
C       9.25      22.28       2.42
C       9.25      13.21       2.42
C       5.34      10.45      23.28
C       4.39      22.28      18.44
C       0.48       1.38      39.30
C       0.96      11.46      37.43
C       3.90      12.20      16.57
C       5.82       0.37      25.15
C       8.76      23.29       4.29
C       8.76      12.20       4.29
C       5.82      11.46      25.15
C       3.90      23.29      16.57
C       0.96       0.37      37.43
C       2.09      10.81      37.89
C       2.77      12.85      17.03
C       6.95       1.02      24.69
C       7.63      22.64       3.83
C       7.63      12.85       3.83
C       6.95      10.81      24.69
C       2.77      22.64      17.03
C       2.09       1.02      37.89
C       4.36       8.69      10.53
C       0.50      14.97      31.39
C       9.22       3.14      10.33
C       5.36      20.52      31.19
C       5.36      14.97      31.19
C       9.22       8.69      10.33
C       0.50      20.52      31.39
C       4.36       3.14      10.53
C       4.15      10.30      11.98
C       0.71      13.36      32.84
C       9.01       1.53       8.88
C       5.57      22.13      29.74
C       5.57      13.36      29.74
C       9.01      10.30       8.88
C       0.71      22.13      32.84
C       4.15       1.53      11.98
C       3.03      10.29      11.17
C       1.83      13.37      32.03
C       7.89       1.54       9.69
C       6.69      22.12      30.55
C       6.69      13.37      30.55
C       7.89      10.29       9.69
C       1.83      22.12      32.03
C       3.03       1.54      11.17
C       2.87       5.91      40.19
C       1.99      17.74      19.33
C       7.73       5.91      22.39
C       6.85      17.74       1.53
C       1.37       6.60      38.78
C       3.49      17.05      17.92
C       6.23       5.23      23.80
C       8.35      18.43       2.94
C       8.35      17.05       2.94
C       6.23       6.60      23.80
C       3.49      18.43      17.92
C       1.37       5.23      38.78
C       2.02       5.91       8.75
C       2.84      17.74      29.61
C       6.88       5.91      12.11
C       7.70      17.74      32.97
C       2.63       6.60       6.78
C       2.23      17.06      27.64
C       7.49       5.23      14.08
C       7.10      18.43      34.94
C       7.10      17.06      34.94
C       7.49       6.60      14.08
C       2.23      18.43      27.64
C       2.63       5.23       6.78
N       2.45      10.41       2.22
N       2.41      13.25      23.08
N       7.31       1.42      18.64
N       7.27      22.24      39.50
N       7.27      13.25      39.50
N       7.31      10.41      18.64
N       2.41      22.24      23.08
N       2.45       1.42       2.22
N       2.79       9.28       0.32
N       2.07      14.38      21.18
N       7.65       2.55      20.54
N       6.93      21.11      41.40
N       6.93      14.38      41.40
N       7.65       9.28      20.54
N       2.07      21.11      21.18
N       2.79       2.55       0.32
N       2.45      11.34       5.33
N       2.42      12.32      26.19
N       7.31       0.49      15.53
N       7.28      23.17      36.39
N       7.28      12.32      36.39
N       7.31      11.34      15.53
N       2.42      23.17      26.19
N       2.45       0.49       5.33
N       2.47      10.22       7.27
N       2.39      13.44      28.13
N       7.33       1.61      13.59
N       7.26      22.05      34.45
N       7.26      13.44      34.45
N       7.33      10.22      13.59
N       2.39      22.05      28.13
N       2.47       1.61       7.27
N       3.09      13.46       2.97
N       1.77      10.20      23.83
N       7.96      22.03      17.89
N       6.63       1.63      38.75
N       6.63      10.20      38.75
N       7.96      13.46      17.89
N       1.77       1.63      23.83
N       3.09      22.03       2.97
N       4.93      14.54       2.29
N       9.65       9.12      23.15
N       0.07      20.95      18.57
N       4.79       2.71      39.43
N       4.79       9.12      39.43
N       0.07      14.54      18.57
N       9.65       2.71      23.15
N       4.93      20.95       2.29
N       1.77      10.17      39.07
N       3.09      13.49      18.21
N       6.64       1.66      23.51
N       7.95      22.00       2.65
N       7.95      13.49       2.65
N       6.63      10.17      23.51
N       3.09      22.00      18.21
N       1.77       1.66      39.07
N       9.66      11.22      38.34
N       4.92      12.43      17.48
N       4.80       0.61      24.24
N       0.06      23.05       3.38
N       0.06      12.43       3.38
N       4.80      11.22      24.24
N       4.92      23.05      17.48
N       9.66       0.61      38.34
N       3.17       9.26      10.25
N       1.69      14.40      31.11
N       8.03       2.57      10.61
N       6.55      21.09      31.47
N       6.55      14.40      31.47
N       8.03       9.26      10.61
N       1.69      21.09      31.11
N       3.17       2.57      10.25
N       4.98       9.28      11.57
N       9.60      14.38      32.43
N       0.12       2.55       9.29
N       4.74      21.11      30.15
N       4.74      14.38      30.15
N       0.12       9.28       9.29
N       9.60      21.11      32.43
N       4.98       2.55      11.57
N       2.33       7.03      39.68
N       2.54      16.63      18.82
N       7.19       4.80      22.90
N       7.40      18.86       2.04
N       7.40      16.63       2.04
N       7.19       7.03      22.90
N       2.54      18.86      18.82
N       2.33       4.80      39.68
N       2.24       7.03       8.04
N       2.62      16.62      28.90
N       7.10       4.79      12.82
N       7.48      18.86      33.68
N       7.48      16.62      33.68
N       7.10       7.03      12.82
N       2.62      18.86      28.90
N       2.24       4.79       8.04
