244

Zn       7.78       9.16      15.61
Zn      27.41      10.95      18.27
Zn       9.31      12.01      15.79
Zn      25.84      11.85      15.60
Zn      18.58       7.32       8.88
Zn      17.05       4.50       8.68
Zn      18.73       5.50       6.20
Zn      20.27       4.65       8.88
Zn      16.56      16.51      22.52
Zn      18.13      15.64      25.17
Zn      16.43      18.31      25.20
Zn      14.90      15.49      25.00
Zn      18.08       5.26      32.11
Zn      14.89       5.10      31.89
Zn      25.36      20.15      31.93
Zn      18.62      17.71       1.96
H      23.25      11.27      13.75
H      21.62      11.09      13.21
H      22.75       5.16      10.89
H      23.84       5.02      12.20
H      20.27       9.43      10.72
H      21.16      10.81      11.25
H       6.22       7.14      13.58
H       5.84       6.09      12.28
H      11.93      13.50      17.03
H      13.55      13.92      17.40
H      12.39      13.81      23.77
H      11.29      12.55      23.39
H      14.90      15.59      19.90
H      14.02      15.62      18.42
H       9.22      12.06      20.90
H       9.57      12.88      22.36
H      17.05       4.60       3.57
H      16.17       4.63       2.10
H      11.37       1.07       4.58
H      11.73       1.89       6.05
H      14.08       2.50       0.71
H      15.70       2.92       1.08
H      14.56       2.82       7.45
H      13.46       1.55       7.08
H      18.12      20.42      27.03
H      10.20       4.05      27.57
H      23.80      18.12      29.90
H      23.43      17.07      28.59
H      12.29       4.52      30.06
H      10.67       4.33      29.53
H      20.60      16.15      27.20
H      21.69      16.00      28.52
C       7.72       8.00      18.33
C      10.18      12.53      18.59
C      10.39       9.68      14.33
C      27.42      13.99      14.32
C      25.00       9.45      14.04
C      24.79      12.33      18.32
C      15.97       6.82      10.16
C      16.21       3.95       5.88
C      18.66       8.46       6.15
C      21.35       4.14       6.18
C      21.11       7.06      10.43
C      18.67       2.52      10.16
C      19.18      15.16      22.45
C      18.96      18.04      26.74
C      16.49      19.46      22.47
C      13.82      17.81      26.48
C      14.05      14.94      22.20
C      16.54      13.51      26.46
C      16.47       7.25      30.63
C      22.85      20.44      30.34
C      27.97      20.67      30.65
C      18.67      14.76       2.02
C      12.32       1.54       2.28
C       7.18       1.33       1.97
C      24.01       8.85      13.13
C      22.09       7.66      11.35
C      22.87       9.59      12.69
C      23.22       6.91      11.81
C      21.94       9.01      11.79
C      24.18       7.50      12.66
C      11.16      13.14      19.50
C      13.07      14.34      21.29
C      12.30      13.84      18.99
C      11.94      13.62      21.80
C      13.23      14.45      19.87
C      10.98      13.06      20.92
C      12.64       9.74      13.07
C      13.72       6.75      11.42
C      11.48       9.13      13.51
C      14.88       7.37      10.97
C      12.89       7.61      12.18
C      13.46       8.89      12.30
C      23.56      12.90      20.51
C      20.41      14.59      20.26
C      23.70      12.87      19.13
C      20.27      14.61      21.64
C      21.60      13.96      19.84
C      22.36      13.52      20.94
C       7.66       6.65      20.52
C       7.75       3.08      20.28
C       7.72       6.78      19.14
C       7.69       2.94      21.66
C       7.74       4.42      19.85
C       7.68       5.30      20.95
C      26.36      15.91      12.96
C      28.54      18.34      11.51
C      27.42      15.21      13.50
C      27.48      19.04      10.97
C      28.15      17.20      12.24
C      26.75      17.05      12.23
C      15.22       3.34       4.97
C      13.31       2.15       3.19
C      15.38       3.45       3.55
C      13.14       2.07       4.61
C      14.45       2.84       2.68
C      14.10       2.63       5.48
C      18.72       9.83       3.96
C      18.61      13.39       4.21
C      18.66       9.69       5.34
C      18.67      13.53       2.83
C      18.63      12.05       4.63
C      18.71      11.17       3.54
C       3.87       2.95       5.76
C       4.93       2.51       2.38
C       2.70       3.59       5.36
C       6.09       1.88       2.78
C       4.11       2.92       3.45
C       4.69       2.56       4.69
C      19.94      18.64      27.66
C      21.87      19.83      29.44
C      19.79      19.99      28.10
C      22.03      18.48      28.98
C      20.73      20.57      29.00
C      21.07      17.89      28.12
C      17.60      11.59      27.82
C      15.41       9.17      29.27
C      16.54      12.29      27.27
C      16.48       8.47      29.82
C      15.81      10.30      28.54
C      17.21      10.45      28.55
C      31.30      17.74      27.74
C      30.23      20.73      29.39
C      32.46      18.36      27.29
C      29.06      20.12      29.83
C      31.04      19.88      28.62
C      30.47      18.60      28.50
S      11.38       7.47      12.98
S      14.98       9.03      11.49
S      22.34      13.61      18.32
S      21.62      13.85      22.45
S       7.79       5.23      18.34
S       7.64       4.49      22.46
S      28.95      15.96      13.12
S      25.95      18.28      11.34
S      18.59      11.23       6.15
S      18.76      11.99       2.02
S       2.60       3.72       3.62
S       6.20       1.76       4.52
S      15.01      11.54      27.65
S      18.01       9.21      29.43
S      32.56      20.02      27.81
S      28.96      18.46      29.30
N      22.61      10.90      13.05
N      23.48       5.60      11.44
N      20.89       9.84      11.42
N       5.50       6.68      13.03
N      12.57      14.00      17.64
N      11.66      13.47      23.15
N      14.29      15.10      19.25
N       9.92      12.40      21.54
N      16.44       4.10       2.93
N      12.08       1.41       5.23
N      14.72       3.01       1.32
N      13.83       2.47       6.84
N      18.74      20.82      27.74
N      23.08      17.66      29.35
N      11.65       4.14      29.36
N      21.33      16.58      27.76
O       7.72      10.99      16.31
O       7.83       7.83      17.06
O       9.24      11.80      19.08
O      10.53      10.87      14.76
O       7.61       9.11      18.95
O       9.40       8.89      14.53
O      10.29      12.74      17.32
O       8.84      13.54      14.64
O      24.87      10.70      14.36
O      26.29      13.50      14.62
O      25.96       8.73      14.50
O      25.81      11.87      18.95
O      24.62      12.37      17.05
O      18.66       5.50       8.16
O      16.90       7.64       9.86
O      15.98       3.94       7.15
O      18.65       7.35       5.53
O      15.89       5.59       9.83
O      18.66       8.64       7.42
O      17.27       4.49       5.39
O      20.41       4.72       5.53
O      21.34       5.88       9.96
O      21.44       4.00       7.44
O      20.04       7.71      10.13
O      17.53       2.89       9.72
O      19.80       3.09       9.97
O      16.50      16.49      24.48
O      18.23      15.75      21.83
O      19.19      16.86      26.27
O      16.51      19.64      23.74
O      19.30      15.00      23.72
O      16.46      18.35      21.85
O      17.89      18.70      26.44
O      14.75      18.63      26.18
O      13.82      14.93      23.48
O      13.73      16.58      26.15
O      15.11      15.48      21.71
O      17.67      14.07      26.26
O      15.39      13.89      26.03
O      25.30      21.98      32.63
O      17.62       6.80      30.96
O      22.74      21.69      30.64
O      26.99      19.88      30.85
O      15.34       6.75      30.92
O      19.31       4.12      31.07
O      23.81      19.71      30.82
O      18.79      14.58       0.76
O      11.36       0.83       2.77
O      18.56      15.87       2.64
O      12.44       1.73       1.01
O       7.03       1.36       0.70
O       8.19       0.88       2.62
F      12.98      11.02      13.33
F      13.38       5.48      11.17
F      24.45      12.40      21.38
F      19.52      15.10      19.39
F       7.60       7.67      21.38
F      16.62      19.79      19.42
F      25.07      15.56      13.10
F      29.83      18.70      11.38
F      18.79       8.80       3.09
F      18.54      14.42       5.08
F       4.20       2.72       7.04
F       4.59       2.75       1.10
F      18.89      11.95      27.69
F      14.12       8.82      29.41
F      30.96      16.47      27.48
F      21.76       4.27      29.65
