80

Al       1.67      11.90      12.48
Al       4.96       3.98       4.15
Al       5.02      11.89      12.56
Al       1.62       3.95       4.20
H       5.17       8.36      14.83
H       1.65       7.48       1.91
H       1.82       0.91      10.22
H       4.99      14.98       6.44
H       5.12       3.32       1.19
H       3.98      10.47      16.15
H       1.78       4.61       7.16
H       0.64      13.31       8.90
H       3.35      10.23      12.07
H       3.27       5.51       3.48
H       0.01      13.55      12.98
H       6.61       2.42       4.87
C       3.33      13.60      14.21
C       3.26       2.32       2.36
C       6.67      10.18      10.83
C       6.60       5.61       5.99
C       3.38      13.35      10.58
C       3.32       2.45       6.04
C       0.03      10.44      14.46
C       6.66       5.48       2.31
C       5.84       8.48      15.68
C       0.95       7.38       1.08
C       2.50       0.79       9.37
C       4.29      15.08       7.27
C       5.79       6.22       0.02
C       0.98       8.30       0.04
C       2.45       1.71       8.32
C       4.33      14.15       8.31
C       0.00       6.35       1.10
C       0.07       9.54      15.67
C       3.34       1.58       7.25
C       3.41      14.25       9.38
C       6.57       6.57       7.05
C       6.64       9.20       9.79
C       3.23       1.36       1.29
C       3.30      14.59      15.26
C       6.58       7.42       7.94
C       6.61       8.35       8.91
C       3.24       0.51       0.41
C       3.26      15.44      16.14
S       4.58       6.23      16.51
S       2.08       9.71       0.29
S       1.24       3.03       8.54
S       5.42      12.75       8.06
O       4.48      13.05      11.11
O       2.17       2.80       5.61
O       1.14      10.73      13.94
O       5.52       5.12       2.74
O       2.21      13.25      13.73
O       4.42       2.77       2.68
O       5.55      10.54      11.32
O       1.08       5.16       5.67
O       2.21      13.03      10.99
O       4.43       2.74       5.49
O       5.55      10.75      14.05
O       1.09       5.19       2.86
O       1.14      10.60      11.19
O       5.49       5.30       5.45
O       4.48      13.19      13.86
O       2.15       2.63       2.90
O       3.34      11.08      12.54
O       3.28       4.78       4.12
O       6.68      12.70      12.51
O       6.63       3.15       4.23
O       3.46       5.13       0.69
O       4.37       6.12      15.10
O       5.39       3.62       0.27
O       1.32      12.22      16.69
O       2.74       9.52       1.55
O       3.18      10.93      15.83
O       0.12       2.80       7.66
O       1.03       3.15       9.95
O       2.05       4.31       8.08
O       4.66      11.57       8.36
O       6.08      12.94       6.79
O       6.52      12.86       9.22
