184

Cu       3.13       3.36      24.99
Cu       1.65       4.26      22.33
Cu       3.66       1.79      22.31
Cu      12.14      20.51      16.40
Cu      10.91      19.51      19.12
Cu      12.44      22.32      18.91
Cu       5.82      15.95       2.89
Cu       8.14      16.98       4.87
Cu       6.87      14.28       5.49
Cu      16.26       7.40      10.65
Cu      18.80       7.95       8.77
Cu      16.10       9.42       8.23
H       2.21       5.67      26.97
H       0.40       7.02      23.28
H       5.86      -0.32      23.29
H       4.79       1.58      27.03
H       0.20       3.82      19.51
H       3.10       0.60      19.46
H      11.58      18.01      14.54
H      10.56      16.38      18.43
H      17.00      -0.28      17.84
H      13.78      22.14      14.25
H       9.22      20.01      21.79
H      11.33      23.77      21.45
H       5.98      18.28       0.63
H       9.17      19.44       3.32
H       5.13      11.76       5.28
H       3.42      14.00       1.99
H       9.99      17.43       7.45
H       8.33      13.52       8.29
H      17.53       5.28      12.67
H      21.04       6.47      10.43
H      13.62      11.18       9.16
H      13.48       7.99      12.09
H      20.41       8.65       6.08
H      16.52      10.36       5.21
H      -0.48      11.07      26.83
H       0.12       9.58      24.60
H      11.25      12.06      15.05
H      11.37      13.78      17.18
H       9.80      22.08      27.04
H      10.24      20.87       1.28
H       1.17       3.20      14.22
H       0.72       5.25      12.44
H       6.02      23.26       1.02
H       6.14       0.22       0.76
H       9.12      11.19      13.13
H      10.47       8.97      12.21
H      19.60       1.05      12.45
H      15.23      23.95      12.80
H       1.23       8.52       3.74
H       3.40       9.78       4.85
H       0.24      -0.34      15.03
H       1.88      -0.40      17.24
H      12.30      16.09      12.13
H      11.55      17.18       9.73
H      19.24      10.67       0.49
H      17.33      10.28       2.43
H      10.20       0.09      25.40
H      11.84       0.18      23.20
C       1.85       5.80      25.96
C       1.10       6.86      25.42
C       0.93       6.50      24.07
C       5.46       0.29      24.09
C       5.69       0.22      25.47
C       4.90       1.26      26.00
C       0.99       3.11      19.71
C       1.42       2.02      18.93
C       2.47       1.46      19.68
C      11.35      17.83      15.59
C      11.03      16.63      16.24
C      10.84      17.00      17.58
C      14.32      23.71      17.08
C      14.63      23.63      15.71
C      13.85      22.56      15.25
C       9.85      20.84      21.52
C       9.95      22.11      22.11
C      10.93      22.77      21.34
C       6.70      18.38       1.43
C       7.73      19.33       1.59
C       8.34      18.97       2.80
C       4.87      12.48       4.51
C       3.86      12.42       3.54
C       4.00      13.62       2.83
C       9.47      16.48       7.45
C       9.49      15.45       8.40
C       8.61      14.48       7.88
C      18.25       5.71      11.98
C      19.64       5.54      11.93
C      20.05       6.32      10.84
C      13.78      10.30       9.77
C      13.04       9.84      10.87
C      13.69       8.66      11.26
C      19.39       9.01       6.08
C      18.66       9.64       5.06
C      17.40       9.88       5.64
C       0.25      10.09       0.30
C      -0.12      10.05      26.79
C       0.19       9.27      25.63
C       0.62       8.04      26.08
C      10.91      13.92      13.94
C      11.13      13.14      15.04
C      11.18      14.04      16.15
C      10.99      15.31      15.66
C       7.80      21.20      26.85
C       9.08      21.32      27.33
C       9.36      21.10       0.70
C       8.16      20.42       0.76
C      20.86       3.11      14.23
C       0.22       3.58      13.87
C      -0.02       4.64      12.94
C      20.49       4.74      12.78
C       5.99      22.69      26.42
C       5.62      23.69       0.11
C       4.36      23.71      27.54
C       6.55      -0.66      26.21
C      10.81      12.25      12.26
C      10.06      11.16      12.60
C      10.77      10.01      12.13
C      11.91      10.47      11.51
C      19.49       1.18      14.63
C      19.15       0.74      13.38
C      18.08      -0.18      13.57
C      17.84      -0.26      14.92
C       1.14      10.33       2.53
C       1.64       9.49       3.49
C       2.76      10.15       4.06
C       2.90      11.35       3.40
C      21.45       1.54      15.92
C       0.31       0.39      15.83
C       1.16       0.37      16.97
C       0.90       1.51      17.69
C      10.83      14.56      11.58
C      11.57      15.70      11.43
C      11.17      16.27      10.18
C      10.23      15.43       9.63
C      20.61      10.23       2.15
C      19.40      10.43       1.53
C      18.41      10.23       2.55
C      19.07       9.94       3.72
C       7.89      22.63      24.97
C      10.54      -0.74      24.79
C      11.39      -0.70      23.65
C       9.22      22.69      23.20
N      10.72      13.60      12.59
N       0.05      10.25       1.67
N      20.46       2.08      15.09
N       7.09      21.98      25.92
N       1.53       5.32      23.83
N       2.10       4.89      25.00
N       4.24       1.88      25.01
N       4.58       1.28      23.82
N       2.65       2.16      20.81
N       1.74       3.19      20.83
N      11.04      18.32      17.72
N      11.36      18.84      16.49
N      13.13      22.05      16.26
N      13.42      22.76      17.40
N      11.36      21.96      20.36
N      10.70      20.76      20.47
N       7.73      17.89       3.32
N       6.71      17.52       2.47
N       5.02      14.34       3.34
N       5.56      13.62       4.38
N       8.12      14.91       6.70
N       8.64      16.15       6.43
N      18.97       6.91      10.28
N      17.86       6.53      10.99
N      14.75       8.43      10.45
N      14.80       9.45       9.52
N      17.38       9.41       6.90
N      18.62       8.88       7.18
O       0.58       8.01      27.46
O      10.81      15.24      14.28
O       7.15      20.14      27.43
O      19.86       3.81      13.61
O       5.23      23.36      25.50
O      11.95      11.85      11.59
O      18.70       0.60      15.59
O       1.91      11.48       2.46
O      -0.09       2.24      17.06
O      10.00      14.37      10.50
O      20.44       9.94       3.47
O       8.47      21.84      24.01
