104

Al       4.43      13.94       8.05
Al       0.11       6.97       4.03
Al       3.83       9.88       4.74
Al       3.83       6.14       1.15
Al       8.14      11.87       5.89
Al       3.83       4.90       6.18
Al       8.14      13.11      10.92
Al       8.14      16.85       7.34
P       2.59      12.49       5.82
P       2.59      12.74      10.43
P       6.91       9.63       4.17
P       2.59      16.60       7.90
P       6.91       5.77       1.65
P       6.91       5.51       6.26
P       6.65      14.62       5.65
P       6.65      11.52       8.66
P       2.34       8.71       2.24
P       6.65      15.68       9.84
P       2.34       4.55       3.41
P       2.34       7.65       6.43
H       1.76      13.73       3.96
H       1.76      10.51      10.28
H       6.08      10.62       2.16
H       1.76      17.59       9.92
H       6.08       3.53       1.80
H       6.08       6.76       8.12
H       3.24      14.47       4.67
H       3.24      10.76       9.29
H       7.56       9.64       1.88
H       3.24      16.61      10.19
H       7.56       3.79       2.79
H       7.56       7.49       7.40
H       1.67      14.67       5.49
H       1.67      11.36       8.70
H       5.99       8.83       2.11
H       1.67      15.80       9.96
H       5.99       4.39       3.38
H       5.99       7.70       6.59
H       6.89      15.12       3.30
H       6.89       9.25       9.41
H       2.57      10.50       0.64
H       6.89      17.47      11.44
H       2.57       2.28       2.67
H       2.57       8.15       8.77
H       5.34      15.73       3.97
H       5.34       9.52       8.54
H       1.03       9.61       0.44
H       5.34      16.58      11.63
H       1.03       2.55       3.53
H       1.03       8.76       8.10
H       5.55      13.98       3.64
H       5.55      10.11      10.23
H       1.23      10.78       1.79
H       5.55      17.75      10.28
H       1.23       3.14       1.85
H       1.23       7.00       8.44
C       2.28      13.99       4.89
C       2.28      11.19       9.59
C       6.60       9.69       2.41
C       2.28      16.66       9.67
C       6.60       4.22       2.48
C       6.60       7.01       7.18
C       6.05      14.89       3.98
C       6.05       9.94       9.27
C       1.74      10.03       1.17
C       6.05      17.00      10.91
C       1.74       2.97       2.81
C       1.74       7.92       8.10
O       3.35      12.73       7.10
O       3.35      13.73       9.58
O       7.66       8.40       4.60
O       3.35      15.37       7.47
O       7.66       6.76       2.50
O       7.66       5.76       4.97
O       3.38      11.57       4.85
O       3.38      12.36      11.71
O       7.70      10.93       4.48
O       3.38      17.91       7.59
O       7.70       5.39       0.36
O       7.70       4.59       7.23
O       1.24      11.80       6.15
O       1.24      13.37      10.86
O       5.55       9.69       4.93
O       1.24      16.67       7.15
O       5.55       6.39       1.22
O       5.55       4.83       5.93
O       5.50      14.19       6.51
O       5.50      12.49       8.61
O       1.18       8.19       3.05
O       5.50      15.16       9.03
O       1.18       5.52       3.46
O       1.18       7.21       5.57
O       7.32      15.95       6.08
O       7.32      11.24       7.30
O       3.00       7.67       1.30
O       7.32      14.65      10.77
O       3.00       4.27       4.78
O       3.00       8.98       5.99
O       7.77      13.55       5.57
O       7.77      11.99       9.63
O       3.45       9.32       3.12
O       7.77      16.29       8.95
O       3.45       5.02       2.44
O       3.45       6.58       6.51
