134

Al       4.23      14.20      10.73
Al      -0.66       6.52      21.49
Al       0.90      14.26      10.75
Al       2.67       6.46      21.51
H      -0.73      10.37       1.58
H       4.31      10.35      12.34
H      -1.62      13.49       5.06
H       5.19       7.23      15.83
H      -0.81      12.41       3.04
H       4.38       8.31      13.81
H       1.48       9.98       9.64
H       2.09      10.74      20.40
H       2.71       8.12       5.95
H       0.86      12.60      16.72
H       1.73       7.94       8.21
H       1.84      12.78      18.97
H       3.78      13.43       7.19
H      -0.22       7.29      17.95
H       0.67      16.64       7.46
H       2.90       4.07      18.23
H       2.47       1.92       4.86
H       1.10      18.80      15.62
H       2.35       3.79       3.18
H       1.22      16.93      13.93
H      -0.14       1.04       3.61
H       3.71      19.67      14.37
H      -2.31      19.96       7.12
H       5.89       0.76      17.88
H      -0.24       2.95       1.97
H       3.81      17.77      12.73
H       2.23       8.04       2.79
H       0.19       8.60       3.47
H       0.83      10.00       4.37
H       0.75       8.42       5.16
H       1.34      12.68      13.55
H       3.38      12.11      14.24
H       2.74      10.72      15.13
H       2.82      12.30      15.92
H      -0.73      13.58       9.14
H       4.31       7.14      19.90
H       2.60      14.94      12.31
H       0.97       5.78       1.55
C      -0.79      12.46      12.41
C       4.36       8.25       1.65
C      -0.74      16.11      12.28
C       4.31       4.61       1.52
C       2.61      16.04       9.13
C       0.96       4.68      19.89
C       2.51      12.38       9.20
C       1.06       8.34      19.96
C      -1.44      11.54       3.24
C       5.01       9.18      14.01
C       4.30       9.38       2.60
C      -0.73      11.34      13.36
C       1.95      10.04       8.66
C       1.62      10.67      19.42
C       2.07       8.91       7.84
C       1.50      11.81      18.61
C       2.60       9.01       6.57
C       0.97      11.70      17.33
C       3.05      10.25       6.05
C       0.52      10.46      16.82
C       3.10      11.37       6.95
C       0.47       9.35      17.71
C       3.57      10.40       4.71
C      -0.00      10.32      15.47
C       4.40      11.52       4.42
C      -0.84       9.20      15.18
C       4.44      12.61       5.34
C      -0.87       8.11      16.10
C       3.76      12.57       6.52
C      -0.20       8.15      17.29
C       3.34       9.44       3.65
C       0.23      11.28      14.42
C      -1.42      10.44       2.42
C       4.99      10.28      13.18
C       2.51      11.25       8.24
C       1.06       9.47      19.00
C       4.37       3.48       2.49
C      -0.80      17.24      13.25
C       5.55       2.72       2.62
C      -1.97      18.00      13.38
C       5.61       1.67       3.52
C      -2.03      19.05      14.28
C       4.49       1.39       4.33
C      -0.91      19.33      15.09
C       3.32       2.16       4.21
C       0.26      18.56      14.97
C       3.26       3.19       3.29
C       0.32      17.53      14.04
C       1.35      18.43       6.49
C       2.22       2.28      17.25
C       1.47      17.38       7.39
C       2.10       3.34      18.15
C       2.39      19.39       6.40
C       1.18       1.33      17.16
C       2.59      17.23       8.22
C       0.98       3.48      18.98
C       3.62      18.19       8.14
C      -0.05       2.52      18.90
C       3.52      19.23       7.22
C       0.05       1.48      17.98
C       0.95       8.92       4.20
C       2.62      11.80      14.96
N       4.42       0.35       5.28
N      -0.85      20.37      16.04
N       2.46      20.48       5.51
N       1.11       0.23      16.27
N       2.25       8.61       3.64
N       1.32      12.11      14.40
Cl      -0.04      18.46       5.46
Cl       3.61       2.26      16.22
Cl      -1.61      18.19       9.14
Cl       5.18       2.53      19.90
O       0.40      15.79      11.81
O       3.17       4.93       1.05
O       4.71      12.74      11.88
O      -1.14       7.98       1.12
O       3.63      12.94       9.45
O      -0.05       7.78      20.21
O      -1.84      15.53      12.00
O       5.41       5.19       1.24
O       3.74      15.65       9.55
O      -0.17       5.07      20.31
O       0.29      13.14      12.18
O       3.29       7.58       1.42
O      -0.75      14.17       9.90
O       4.32       6.54      20.66
O       1.49      15.48       9.37
O       2.08       5.23      20.13
O       1.39      12.71       9.73
O       2.18       8.01      20.49
O       2.56      14.30      11.59
O       1.01       6.42       0.83
