126

Zr       5.66       3.65       5.49
Zr      18.57       1.47       8.22
Zr       3.99       0.54       5.36
Zr      20.24       4.58       8.34
Zr       5.65       1.55       8.34
Zr      18.59       3.56       5.36
H       6.74       1.04       5.77
H      20.24       2.51      10.26
H      17.64       0.90       5.60
H      20.30       5.80       5.77
H      10.36       1.45       8.70
H      18.33       6.08       1.39
H      14.23      -7.91      12.05
H       9.86      -5.65       8.67
H       6.16      -0.77       1.78
H       8.13       3.01       2.05
H      17.97       5.96      11.83
H      16.04       2.16      11.59
H       8.18       7.40       5.31
H      15.27      10.61       0.30
H      14.17      11.81       0.97
H      13.67       2.08      12.92
H      10.52       3.03       0.81
H      10.10      -6.70      12.76
H       9.00      -5.45      13.37
C       8.37       2.70       7.03
C       3.88      -0.13      10.44
C      15.87       2.56       6.76
C      20.38       5.12       3.16
C       6.26       1.47       3.20
C      22.57       6.46       7.01
C      17.89       3.72      10.42
C       1.79      -1.40       6.81
C       6.15      -1.33       6.87
C       1.86       1.26       3.04
C      17.96       6.39       6.91
C      22.51       3.94      10.55
C      13.52       3.27       5.97
C      10.71       2.05       7.86
C      14.41       2.61       6.81
C       9.84       2.71       7.00
C      12.05       2.26       7.48
C      12.17       3.08       6.34
C       4.88      -1.40      12.44
C      19.37       6.29       1.12
C       3.84      -0.95      11.65
C      20.43       5.86       1.90
C      19.50      -2.22      13.62
C       4.45      -2.12      13.57
C       1.33      -0.39       1.14
C      23.10       5.63      12.38
C       1.19       0.81       1.82
C       6.80       4.42      11.73
C      15.81      -8.56      13.49
C       8.64      13.79       0.02
C       6.74      -3.69       6.00
C      17.34       8.69       7.83
C       6.84      -2.63       6.90
C      17.21       7.65       6.92
C       8.33      -4.53       7.49
C      15.73       9.52       6.33
C       6.90      -0.09       1.38
C       8.03       2.06       1.52
C       8.81       1.78       0.42
C       8.32      -8.68      13.39
C      17.23       5.28      12.24
C      16.13       3.12      12.11
C      15.36       3.39      13.22
C      15.83      13.86       0.24
C       7.07       1.14       2.00
C      17.06       4.06      11.61
C      16.57      -3.07       7.77
C       7.87       8.06       6.12
C       1.09      -2.68       6.87
C      23.34       7.71       7.02
C       8.38       9.34       6.40
C      16.06      -4.36       7.52
C      14.73      11.53       0.07
C       9.50      -6.39      13.62
S      13.59       1.75       8.08
S      10.64       3.59       5.73
S      18.75      -1.42      12.29
S       5.53       6.31       1.27
S      16.44       1.83       1.07
S       8.01       3.39      12.45
S       7.99      -2.97       8.17
S      16.06       7.97       5.65
S       9.56      10.37       5.69
S      14.86      -5.37       8.23
O       7.80       3.38       6.11
O      19.20       0.18       9.93
O      16.43       1.85       7.67
O       5.05       4.86       3.70
O       5.41       0.61       3.63
O      21.67       6.29       7.91
O      18.74       4.58      10.01
O       2.65      -1.22       5.88
O       6.43      -0.51       7.82
O      17.98       2.41       3.51
O      17.73       5.58       5.95
O       6.37       2.78      10.10
O       2.72       0.47       3.55
O      18.81       6.21       7.86
O      21.61       4.71      10.09
O       5.35      -1.12       5.90
O       6.48       2.61       3.74
O      17.92      -0.55       7.71
O      17.69       2.56       9.90
O       6.40       5.65       6.06
O      19.22       4.80       3.62
O       7.80       2.01       7.94
O       5.03       0.24      10.00
O      16.46       3.20       5.82
O      20.30       4.88       6.08
O      18.42       1.38       5.94
O      20.29       2.52       9.29
O       5.94       1.48       6.09
O       3.93       0.86       7.42
O       5.32       3.44       7.52
O      18.84       3.37       7.41
O       3.94       2.59       5.05
F      13.88       4.00       4.90
F       6.19      -1.18      12.19
F      10.34      12.92       1.49
F      14.09      10.59       4.93
F      16.11      -2.32       8.79
