156

Cd       7.25       4.02       9.05
Cd      13.03       8.36       1.92
Cd       6.89       4.61       5.22
Cd      13.39       7.77      12.35
H      11.40       7.48       8.99
H       8.88       4.90       1.85
H      11.86       6.72       5.28
H       8.42       5.66      12.41
H      13.47       3.52       8.96
H       6.81       8.86       1.82
H       9.29      10.37       5.31
H      10.99       2.01      12.45
H       7.24       0.00      11.51
H      13.04      12.38       4.37
H       3.31       6.44       2.76
H      16.97       5.94       9.90
H      13.56      11.77       1.51
H       6.72       0.61       8.64
H      16.66       6.68      12.76
H       3.62       5.70       5.63
H       7.56       3.38      14.14
H      12.72       9.00       7.01
H       6.46       5.18       0.13
H      13.82       7.20       7.26
H      10.09       9.57       8.95
H      10.19       2.81       1.82
H      13.13       4.60       5.32
H       7.15       7.78      12.45
H      12.37       5.74       9.00
H       7.91       6.64       1.86
H      10.76       8.38       5.27
H       9.52       4.00      12.41
H       6.49       7.17       8.95
H      13.79       5.21       1.81
H       9.34       2.50       5.32
H      10.94       9.88      12.46
H       9.53       1.73       8.89
H      10.75      10.65       1.76
H       5.89       7.68       5.38
H      14.39       4.69      12.51
H       7.55       9.44       8.91
H      12.73       2.94       1.78
H      11.85       2.40       5.36
H       8.43       9.97      12.49
H      12.03       1.44       8.91
H       8.25      10.94       1.78
H       6.78      10.04       5.36
H      13.50       2.33      12.49
H       7.31       2.97       2.24
H      12.97       9.41       9.38
H       5.98       5.15      12.03
H      14.30       7.23       4.89
H       7.25       1.42       2.91
H      13.04      10.95      10.05
H       4.58       5.79      11.36
H      15.70       6.58       4.22
C      10.31       7.43       8.96
C       9.97       4.94       1.82
C      11.32       5.77       5.31
C       8.96       6.61      12.45
C      12.38       3.58       8.95
C       7.90       8.79       1.81
C       8.85       9.37       5.32
C      11.43       3.00      12.46
C       7.34       2.68      11.52
C      12.94       9.70       4.39
C       5.74       5.30       2.75
C      14.54       7.08       9.88
C       7.29       0.40      12.52
C      12.99      11.98       5.38
C       3.69       6.30       1.75
C      16.60       6.08       8.89
C       7.38       1.78      12.71
C      12.90      10.60       5.58
C       4.96       5.75       1.56
C      15.32       6.63       8.69
C       7.27       0.06       0.66
C      13.01      12.31       7.79
C       3.38       6.44      13.61
C      16.90       5.94       6.48
C       9.64       6.20       8.96
C      10.64       6.17       1.82
C       9.92       5.73       5.31
C      10.36       6.64      12.45
C       7.43       1.45       0.87
C      12.85      10.93       8.00
C       4.69       5.95      13.40
C      15.59       6.43       6.27
C       7.47       2.30      14.01
C      12.81      10.08       6.87
C       5.46       5.60       0.26
C      14.82       6.78       7.40
C       9.57       8.61       8.94
C      10.71       3.76       1.81
C      12.03       4.57       5.33
C       8.25       7.81      12.46
C      11.77       4.83       8.96
C       8.51       7.54       1.83
C       9.68       8.26       5.31
C      10.60       4.12      12.44
C      10.37       4.90       8.95
C       9.91       7.47       1.82
C       9.10       6.98       5.32
C      11.18       5.40      12.45
C       7.58       7.28       8.94
C      12.70       5.10       1.81
C       9.94       3.41       5.33
C      10.34       8.97      12.46
C      10.21       2.58       8.91
C      10.07       9.79       1.78
C       6.96       7.90       5.36
C      13.32       4.48      12.49
C       8.17       8.54       8.93
C      12.11       3.84       1.79
C      11.33       3.37       5.34
C       8.95       9.01      12.48
C      13.42      10.46      13.39
C       6.86       1.92       6.26
C      15.43       7.15       0.88
C       4.85       5.23       8.01
C      13.58      11.92      13.63
C       6.70       0.45       6.49
C      16.82       6.63       0.64
C       3.46       5.75       7.78
C      11.59       2.43       8.92
C       8.69       9.94       1.79
C       7.46       9.20       5.35
C      12.82       3.18      12.48
N       7.58       1.98       2.13
N      12.70      10.39       9.27
N       5.23       5.83      12.14
N      15.05       6.55       5.00
N       8.29       6.15       8.95
N      11.99       6.23       1.82
N       9.26       4.56       5.32
N      11.02       7.82      12.45
N       9.62       3.79       8.93
N      10.66       8.59       1.79
N       7.76       6.82       5.34
N      12.52       5.55      12.48
O       7.44       3.95      11.68
O      12.84       8.43       4.55
O       6.91       4.81       2.59
O      13.37       7.57       9.72
O       7.21       2.15      10.37
O      13.07      10.23       3.24
O       5.21       5.43       3.90
O      15.07       6.95      11.03
O      12.96       9.72       0.05
O       7.32       2.66       7.19
O      14.57       7.09      14.22
O       5.71       5.29       7.08
O      13.70      10.00      12.23
O       6.58       2.37       5.09
O      15.16       7.61       2.04
O       5.12       4.77       9.18
