210

Al      13.35       8.37      16.34
Al      11.79       5.61      16.75
Al      10.18       8.14      16.71
Al       1.49       1.04       0.51
Al       4.67       1.06       0.15
Al       3.23       3.70       0.11
H       7.95       7.44      29.74
H       9.57      10.14      20.17
H      14.76      13.03      30.22
H      14.01      11.08      22.21
H      14.51      12.19      27.87
H      10.55      13.89      30.37
H      10.31      13.12      27.99
H      13.65       4.12      20.11
H      15.39       8.03      19.69
H      16.46       4.13      30.61
H       8.14       7.53      27.24
H      14.34       4.08      22.52
H      16.08       7.99      22.10
H      15.59       4.25      28.25
H      18.87       7.61      29.90
H      18.02       7.73      27.54
H       8.64       7.64      13.27
H       6.81       1.60       3.46
H       8.66       3.04      11.40
H       8.04       7.26      10.87
H       7.60       2.08       5.78
H       5.32       5.62       3.12
H       6.15       6.12       5.43
H       7.80      11.76       4.21
H       8.15      11.31       6.66
H       8.87      10.11      13.35
H      13.12       9.99      12.73
H      12.36      10.70       5.92
H      11.99      11.16       3.49
H       8.19       7.66      20.34
H      12.78      10.40      10.28
H      15.89       5.79       3.49
H      15.69       6.35       5.92
H      13.95       7.64      12.78
H      13.68       2.60       6.61
H      13.85       2.07       4.17
H      14.29       3.17      10.76
H      11.04       4.45      20.48
H      10.19       3.74      27.27
H       9.96       3.64      29.76
H      10.80       4.34      22.96
H      13.85      10.40      19.79
H       9.43      10.42      23.82
H       9.65       3.37      14.90
H       9.43       1.13      14.39
H       8.14       1.54      13.25
H       9.84       1.56      12.71
H       7.08       8.45      22.18
H       7.38      10.48      11.71
H      14.42       8.72      10.88
H      14.28       2.31      12.75
H      12.68       1.74      14.47
H      12.01       3.38      14.29
H      11.90       2.23      12.93
H      15.56       9.12      16.60
H      13.14       0.20       1.57
C      13.93       6.22      18.39
C       9.34       5.92      23.07
C       8.58       6.86      22.30
C       8.75       6.92      20.91
C       8.55       6.70      27.80
C       8.45       6.65      29.19
C       9.59       4.50      29.20
C       9.70       4.55      27.82
C       9.18       5.65      27.10
C       9.27       5.70      25.69
C       9.26       5.84      24.47
C       9.90       6.20      18.80
C       8.96       5.55      29.90
C      11.70      10.25      19.83
C      12.95      10.50      20.41
C      13.04      10.86      21.75
C      11.88      10.97      22.54
C      10.62      10.71      21.96
C      10.55      10.36      20.61
C      12.27      12.21      26.38
C      12.02      11.43      23.92
C      13.65      12.57      28.42
C      11.63       9.74      18.43
C      13.79      13.02      29.73
C      11.41      13.51      29.80
C      11.27      13.08      28.49
C      12.40      12.62      27.79
C      12.67      13.51      30.42
C      14.47       6.09      19.76
C      14.19       4.96      20.56
C      14.57       4.94      21.89
C      15.24       6.04      22.46
C      15.56       7.15      21.65
C      13.46       5.90      14.57
C      15.18       7.17      20.32
C      16.26       6.06      26.38
C      15.56       6.07      23.89
C      16.30       4.98      28.62
C      16.78       4.92      29.92
C      18.15       6.88      29.53
C      17.68       6.95      28.22
C      16.75       5.99      27.76
C      17.71       5.86      30.38
C       9.01       5.57      13.70
C       9.51       5.93      15.03
C       8.99       4.23      13.19
C       8.65       4.04      11.83
C       8.32       5.12      11.01
C       8.29       6.43      11.52
C       8.63       6.63      12.85
C       7.39       4.42       7.12
C       8.04       4.88       9.58
C       7.11       2.86       5.19
C       6.68       2.59       3.89
C       5.84       4.86       3.71
C      11.23       9.58      14.59
C       6.29       5.14       4.99
C       6.93       4.13       5.75
C       6.04       3.59       3.14
C      11.02      10.01      13.19
C      12.12      10.12      12.32
C      11.93      10.35      10.97
C      10.63      10.50      10.43
C       9.51      10.45      11.32
C       9.73      10.19      12.68
C       8.98      11.28       5.95
C       9.63       6.06      20.25
C       8.79      11.52       4.60
C      11.16      11.18       4.19
C      11.36      10.93       5.54
C      10.28      10.99       6.44
C      10.46      10.80       7.83
C      10.49      10.68       9.04
C       9.88      11.49       3.72
C      13.77       5.55      13.15
C      13.91       4.25      12.58
C      14.21       4.16      11.21
C      10.35       5.11      21.00
C      14.36       5.27      10.37
C      14.27       6.57      10.96
C      14.00       6.66      12.32
C      15.30       5.42       5.53
C      15.40       5.11       4.18
C      14.25       3.00       4.57
C      14.15       3.30       5.92
C      14.69       4.51       6.42
C      14.61       4.79       7.80
C      14.53       5.07       8.99
C      10.22       5.05      22.38
C      14.88       3.90       3.69
C      12.80      14.12      31.77
C       8.72       5.43      31.36
C      18.29       5.69      31.74
C       9.66      11.90       2.30
C       5.47       3.26       1.81
C      15.09       3.48       2.28
C       9.35      10.65      22.73
C       9.16       1.78      13.56
C       7.61       7.80      22.91
C       8.12      10.65      10.89
C      14.43       7.82      10.21
C      12.53       2.57      13.77
N      13.37      11.71      25.76
N       8.26       3.63       9.09
N       7.66       5.93       8.82
N       7.33       5.70       7.56
N      13.23      11.28      24.52
N      10.97      12.06      24.50
N      11.08      12.42      25.76
N      15.43       5.08      25.95
N      15.06       5.09      24.68
N      16.26       7.13      24.36
N      16.61       7.13      25.63
N       7.92       3.40       7.83
N       9.27       3.16      13.99
N      13.83       3.05      13.29
O      12.71       9.53      17.83
O      10.30       5.10      15.65
O       9.20       7.08      15.51
O      10.19       9.38      15.32
O      11.76       7.36      16.61
O      17.98       4.65      32.38
O      11.74      14.45      32.37
O      14.00      14.32      32.21
O       9.13       4.37      31.95
O       8.05       6.36      31.93
O      19.13       6.59      32.15
O      14.19       7.28      17.75
O      14.67       2.34       1.93
O       8.48      12.17       1.94
O      10.71      12.01       1.55
O       5.74       2.11       1.31
O       4.68       4.11       1.27
O      15.74       4.30       1.52
O       3.15       1.95       0.25
O      13.16       5.28      17.95
O      10.68       5.34      18.26
O       9.40       7.21      18.18
O      10.45       9.48      17.97
O      12.43       9.37      14.96
O      13.80       7.06      14.95
O      12.83       5.05      15.31
O       8.25      10.77      22.20
O       7.38       7.89      24.11
O       7.74      10.98       9.77
O      14.58       7.95       9.00
O      14.79       9.35      16.06
O      13.54       0.18       0.69
