236

Zn      23.23      18.71      16.98
Zn      13.02       1.93      14.31
Zn      19.97      18.66      16.86
Zn      12.86       3.78      16.96
Zn      19.99       8.26      23.69
Zn      23.18       8.40      23.90
Zn      21.52       7.22      26.38
Zn      21.68       5.55      23.71
Zn      12.90      14.09      10.13
Zn      13.05      12.32       7.48
Zn      11.40      15.08       7.45
Zn      14.59      15.16       7.62
Zn      22.33       7.80       0.57
Zn      23.87      10.63       0.74
Zn       5.92       7.89       0.71
Zn      10.74      12.76      30.61
H      17.05       7.04      21.08
H      26.19      19.97      19.53
H      15.41      15.43      13.07
H      19.23      18.16      11.45
H      23.71      12.06      21.40
H      12.81      10.66      13.02
H       9.83      15.60      12.99
H       5.22       3.46      21.40
H      25.58       9.97      30.99
H      26.11      10.21      26.06
H      13.82      11.32      27.72
H      30.13      18.51      31.22
H      26.30      12.71       3.30
H      10.73      10.25       4.80
H      20.75      12.75       3.16
H      21.81       4.12       3.05
H      14.65       5.78      18.81
H      20.01       3.66      21.66
H      17.62      16.78      15.47
H      17.13      16.63       9.05
H      23.04       8.57      28.99
H      28.63      11.63      28.08
H       8.89      14.32       5.54
H       8.50       8.62       2.60
C      24.27      18.20      14.31
C      19.15      18.04      14.10
C      21.60      16.67      18.29
C      10.27       3.34      18.27
C      15.37       3.52      18.51
C      12.96       4.86      14.27
C      21.61      10.35      22.36
C      23.88       8.95      26.75
C      18.91       8.55      26.38
C      21.67       4.32      26.36
C      19.21       5.87      22.10
C      24.33       6.04      22.54
C      12.90      11.15      10.19
C      10.59      12.68       5.87
C      10.32      15.54      10.16
C      12.99      17.18       6.21
C      15.48      15.57      10.41
C      15.61      12.89       6.13
C      21.26      10.16       2.02
C       6.81      10.27       2.25
C       4.30       5.80       2.03
C      13.33      11.37      30.55
C      27.83      11.22      30.29
C      30.24      15.71      30.57
C      16.35       4.15      19.42
C      18.24       5.25      21.17
C      16.21       5.50      19.85
C      18.40       3.91      20.72
C      17.15       6.02      20.73
C      17.43       3.38      19.86
C      18.21      17.38      13.17
C      16.45      16.18      11.34
C      17.13      16.58      13.65
C      17.55      16.95      10.86
C      16.26      16.02      12.72
C      18.40      17.55      11.80
C      20.47      14.59      19.41
C      22.68      12.32      21.14
C      21.55      15.38      19.01
C      21.59      11.57      21.54
C      22.26      13.43      20.37
C      20.86      13.50      20.21
C      12.92       6.20      12.03
C      12.86       9.80      12.36
C      12.88       6.06      13.41
C      12.91       9.91      10.98
C      12.88       8.44      12.73
C      12.95       7.56      11.63
C      25.56      17.81      12.07
C      28.70      16.05      12.34
C      25.39      17.77      13.45
C      28.83      16.08      10.96
C      27.49      16.66      12.73
C      26.74      17.15      11.65
C       9.01       5.23      19.57
C       5.95       4.24      21.21
C       9.17       3.95      19.05
C       5.82       5.52      21.72
C       7.13       4.13      20.45
C       7.87       5.34      20.39
C      24.86       9.54      27.68
C      26.83      10.64      29.36
C      24.70       9.47      29.10
C      26.98      10.72      27.95
C      25.70      10.02      29.91
C      26.00      10.16      27.14
C      17.75       9.17      28.64
C      14.57      10.86      28.37
C      17.89       9.17      27.25
C      14.44      10.83      29.75
C      15.77      10.24      27.97
C      16.53       9.76      29.06
C      30.46      19.35      26.74
C      30.20      18.24      30.17
C      30.40      20.69      27.15
C      30.25      16.93      29.73
C      30.25      19.12      29.07
C      30.35      18.46      27.83
C       9.61      12.08       4.93
C       7.80      10.87       3.17
C       8.45      12.80       4.51
C       8.95      10.16       3.60
C       7.57      12.18       3.63
C       9.84      10.78       4.47
C      16.79      11.07       4.67
C      20.00      11.98       3.30
C      16.64      12.34       5.22
C      20.14      10.69       2.79
C      18.78      12.10       4.00
C      18.02      10.91       4.00
C       5.46       1.49       4.86
C       3.22       3.85       3.28
C       4.38       0.74       5.33
C       4.31       4.57       2.85
C       3.65       2.73       4.04
C       5.05       2.64       4.15
S      23.05      14.74      19.58
S      20.06      12.21      21.00
S      12.83       7.58      14.23
S      13.00       8.39      10.14
S      26.72      16.98      14.24
S      27.49      16.85      10.14
S       7.89       2.89      19.53
S       7.13       6.59      21.29
S      16.54       9.92      26.47
S      15.76      10.04      30.56
S      30.25      20.83      28.86
S      30.34      16.75      28.00
S      17.99      13.36       4.86
S      18.80       9.64       3.17
S       2.87       1.43       4.85
S       5.85       3.93       3.36
N      19.07      14.75      19.03
N      12.85       5.15      11.02
N      24.72      18.50      11.10
N       9.82       6.41      19.28
N      18.73       8.73      29.63
N      30.71      18.85      25.40
N      15.81       9.98       4.67
N       6.88       1.15       4.95
O      21.61      19.57      16.29
O      24.54      18.35      15.55
O      20.02      18.83      13.60
O      20.54      17.37      18.24
O      23.13      18.35      13.76
O      22.76      16.99      17.83
O      19.03      17.78      15.37
O       9.98       2.24      17.68
O      14.45       4.29      18.02
O      11.40       3.92      18.28
O      15.48       2.28      18.25
O      13.39       3.78      13.76
O      12.61       5.05      15.49
O      21.59       7.37      24.42
O      20.47       9.81      22.58
O      24.10       9.04      25.51
O      19.66       7.66      26.87
O      22.75       9.95      22.78
O      18.89       8.96      25.16
O      22.83       8.37      27.28
O      21.91       5.40      27.03
O      20.26       5.17      22.41
O      21.34       4.25      25.14
O      18.97       7.04      22.55
O      24.43       7.26      22.90
O      23.39       5.22      22.81
O      12.98      14.17       8.17
O      12.90      12.26      10.83
O      11.62      12.01       6.19
O      10.22      15.70       8.89
O      12.90      11.00       8.92
O      11.27      14.97      10.80
O      10.32      13.87       6.32
O      11.86      16.56       6.24
O      15.74      15.65       9.14
O      14.02      16.90       6.89
O      14.45      15.00      10.91
O      14.84      12.06       6.72
O      15.62      14.16       6.28
O       4.33       8.80       0.02
O      21.16       8.94       1.65
O       5.80      10.97       1.90
O       5.44       6.32       1.79
O      22.24      10.95       1.78
O      22.78       6.21       1.63
O       7.02       9.05       1.86
O      13.42      11.21      31.81
O      28.87      11.79      29.75
O      12.38      11.95      29.91
O      27.63      11.12      31.54
O      30.20      15.88      31.83
O      30.27      14.60      29.93
O      15.20       6.31      19.45
O      19.43       3.11      21.08
O      16.88      16.35      14.96
O      17.82      17.14       9.55
O      23.64       8.89      29.70
O      28.05      11.30      27.35
O       8.16      14.06       4.91
O       9.24       8.89       3.20
O      18.24      14.28      19.83
O      18.79      15.28      17.95
O      13.39       5.43       9.93
O      12.24       4.11      11.28
O      24.73      18.02       9.95
O      15.45       1.90      11.45
O       9.80       7.29      20.16
O      10.41       6.49      18.20
O      18.25       8.37      30.72
O      19.93       8.80      29.35
O      30.26      17.71      25.16
O      31.37      19.54      24.61
O      16.30       8.84       4.62
O      14.61      10.25       4.66
O       7.65       2.13       4.93
O      15.87      17.58       4.97
