216

Cd      -2.89       8.93       3.26
Cd       6.22       9.81       6.10
Cd       1.66       6.91       5.45
Cd       7.45      -0.37      11.55
Cd      -1.65      -1.26       8.71
Cd       2.90       1.65       9.36
H      -3.76      12.52       7.12
H       0.13      13.01       5.28
H      -0.36      10.96       3.94
H       4.15      -1.83       5.66
H       1.81      -3.63       8.86
H       1.99      -1.48      10.05
H       8.48      11.05       2.69
H       7.69      12.73       1.00
H       4.49       4.47      13.69
H       6.55       3.04      13.37
H      -1.93       9.97       0.35
H       5.33       4.67       7.29
H      -4.42       6.01       8.61
H      -4.91       8.20       7.51
H      -4.95       4.57      10.38
H       6.35       2.69       7.22
H       6.53       0.58       8.50
H       3.93       9.24       8.22
H       3.14       9.87      10.52
H       9.02      -5.52      11.83
H      -2.57      -4.54      10.75
H      -6.48      11.81       8.47
H       0.78       8.44       0.40
H       4.68       6.62       0.89
H       4.19       6.48       3.34
H      -0.39      -2.72      13.57
H      -2.74       0.95      13.53
H      -2.57       0.90      11.06
H      -0.62       5.35       3.90
H      -1.40       3.04       3.29
H      -0.06       1.07       4.10
H       2.01       1.52       5.50
H       2.63       3.87       6.00
H       8.33      -3.97       7.69
H       4.43      -4.46       9.52
H       4.92      -2.41      10.87
H       0.41      10.38       9.15
H       2.76      12.19       5.95
H       2.58      10.03       4.76
H      -3.91      -2.49      12.12
H      -3.12      -4.17      13.81
H       0.08       4.08       1.12
H      -1.99       5.52       1.44
H       6.50      -1.42      14.46
H      -0.76       3.88       7.52
H       8.99       2.54       6.19
H       9.47       0.36       7.30
H       9.52       3.99       4.43
H      -1.79       5.86       7.59
H      -1.97       7.97       6.31
H       0.64      -0.69       6.59
H       1.43      -1.32       4.29
H      -4.45      14.08       2.98
H       7.13      13.09       4.06
H      11.05      -3.25       6.34
H       3.79       0.11      14.41
H      -0.11       1.93      13.92
H       0.37       2.07      11.47
H       4.96      11.28       1.24
H       7.31       7.60       1.28
H       7.13       7.65       3.75
H       5.19       3.21      10.91
H       5.97       5.52      11.52
H       4.62       7.49      10.71
H       2.56       7.03       9.31
H       1.94       4.68       8.81
C      -3.18      11.13       5.61
C      -2.97      12.22       6.44
C      -1.77      12.95       6.33
C      -0.82      12.50       5.41
C      -1.09      11.36       4.65
C      -4.53      10.43       5.60
C       3.67      -0.62       7.36
C       3.66      -1.82       6.63
C       2.96      -2.92       7.13
C       2.36      -2.81       8.40
C       2.45      -1.60       9.08
C       4.32       0.64       6.79
C       9.02      11.21       1.76
C       8.59      12.14       0.82
C       4.80       3.76      14.45
C       5.93       2.97      14.27
C      -2.82      10.60       0.45
C       5.92       6.68       6.83
C       6.13       5.41       7.37
C       7.32       5.14       8.04
C       8.28       6.16       8.11
C       8.02       7.39       7.50
C       4.57       7.04       6.23
C      -5.44       2.49      10.58
C      -5.45       3.72       9.91
C       7.51       3.83       8.70
C       6.91       2.68       8.16
C       7.00       1.49       8.87
C      -4.79       2.36      11.96
C       4.47       9.97       8.83
C       4.04      10.32      10.11
C       9.33      -5.83      10.83
C      -3.18      -5.27      10.24
C       6.29      11.41       8.96
C       1.36       7.84       2.36
C       1.57       8.01       1.00
C       2.77       7.55       0.43
C       3.73       6.98       1.28
C       3.46       6.90       2.64
C       0.02       8.18       2.98
C      -0.89      -1.86      11.67
C      -0.89      -1.89      13.07
C      -1.59      -0.90      13.78
C      -2.19       0.14      13.05
C      -2.10       0.12      11.66
C      -0.23      -2.99      10.86
C      -0.08       4.46       4.22
C      -0.50       3.18       3.88
C       0.25       2.09       4.34
C       1.38       2.33       5.11
C       1.74       3.64       5.40
C       7.75      -2.57       9.20
C       7.54      -3.67       8.37
C       6.34      -4.39       8.48
C       5.38      -3.94       9.40
C       5.65      -2.80      10.16
C       9.09      -1.87       9.21
C       0.90       9.18       7.45
C       0.91      10.37       8.18
C       1.61      11.48       7.67
C       2.20      11.37       6.41
C       2.11      10.16       5.73
C       0.25       7.91       8.02
C      -4.45      -2.66      13.05
C      -4.03      -3.59      13.99
C      -0.23       4.80       0.36
C      -1.37       5.58       0.54
C       7.39      -2.04      14.36
C      -1.35       1.87       7.98
C      -1.56       3.14       7.44
C      -2.76       3.41       6.76
C      -3.71       2.39       6.70
C      -3.45       1.17       7.31
C      -0.01       1.51       8.58
C      10.01       6.06       4.23
C      10.01       4.83       4.90
C      -2.94       4.72       6.11
C      -2.34       5.87       6.65
C      -2.43       7.06       5.94
C       9.35       6.20       2.85
C       0.10      -1.41       5.98
C       0.52      -1.76       4.70
C      -4.77      14.38       3.98
C       7.75      13.83       4.57
C      -1.72      -2.85       5.85
C       3.20       0.72      12.44
C       2.99       0.55      13.81
C       1.80       1.00      14.38
C       0.84       1.57      13.53
C       1.10       1.66      12.17
C       4.54       0.37      11.83
C       5.45      10.41       3.13
C       5.46      10.44       1.74
C       6.15       9.45       1.03
C       6.75       8.41       1.76
C       6.67       8.43       3.15
C       4.80      11.54       3.95
C       4.64       4.09      10.59
C       5.06       5.38      10.93
C       4.32       6.47      10.47
C       3.18       6.23       9.69
C       2.83       4.91       9.41
N      -2.25      10.70       4.73
N       3.06      -0.53       8.55
N      10.12      10.46       1.59
N       6.85       7.65       6.89
N       7.60       1.42      10.06
N       5.57      10.50       8.27
N       2.30       7.30       3.17
N      -1.50      -0.87      11.00
N       1.02       4.69       4.96
N       6.82      -2.14      10.08
N       1.51       9.09       6.26
N      -5.55      -1.90      13.22
N      -2.28       0.91       7.92
N      -3.04       7.14       4.75
N      -1.00      -1.94       6.54
N       2.27       1.26      11.64
N       6.06       9.43       3.81
N       3.55       3.86       9.85
O       8.88       9.63       4.65
O      -5.33      10.72       6.54
O       3.97       1.76       7.33
O       5.12       0.49       5.85
O       4.33       8.26       6.01
O       3.77       6.08       6.02
O      -5.14       1.33      12.66
O      -3.98       3.25      12.30
O      -0.22       7.76       4.14
O      -0.78       8.85       2.25
O      -0.59      -3.08       9.63
O       0.57      -3.72      11.47
O      -4.31      -1.08      10.16
O       9.90      -2.17       8.27
O       0.60       6.79       7.48
O      -0.56       8.06       8.96
O       0.24       0.29       8.80
O       0.80       2.48       8.79
O       9.71       7.22       2.15
O       8.55       5.31       2.51
O       4.79       0.79      10.66
O       5.35      -0.29      12.56
O       5.15      11.63       5.18
O       3.99      12.28       3.34
