168

Zn       5.98      12.20      24.47
Zn       8.78      12.13      24.46
Zn       6.60       0.04      12.23
Zn       8.08      24.28      12.22
H       5.25      14.81       3.35
H       9.43       7.86      19.20
H       9.30       6.78       4.18
H       5.37      17.55      20.29
H       6.02       5.39      16.43
H       8.65      18.92       8.05
H       8.77      20.03      17.49
H       5.91       4.30       6.98
H       5.14       7.70      19.36
H       9.53      16.62       5.11
H       9.61      17.07      19.78
H       9.43       9.51      21.11
H       5.06       7.25       4.68
H       4.41      19.41       7.56
H      10.26       4.90      16.91
H      10.20       4.48       7.11
H       4.48      19.85      17.35
H       5.14       9.35      21.28
H       9.53      14.98       3.19
H       9.60      15.19      21.47
H       5.07       9.13       2.99
H       4.43      21.29       9.24
H       9.31       8.66       2.51
H      10.24       3.02      15.22
H      10.22       2.83       9.02
H       4.47      21.49      15.42
H       3.74      10.26      24.42
H      10.94      14.06       0.05
H       3.04      22.42      12.15
H      11.64       1.91      12.18
H       1.20      10.35      24.42
H      13.47      13.97       0.05
H       0.51      22.50      12.19
H       5.37      15.66      21.95
H      14.17       1.82      12.23
H      10.74       9.95      24.40
H       3.94      14.37       0.06
H      10.04      22.09      12.33
H       4.63       2.23      12.39
H      12.81       8.59      24.26
H      14.38       9.35      24.33
H       1.86      15.73       0.21
H       0.29      14.97       0.15
H      12.12      20.73      12.44
H       6.00       3.51      14.76
H      13.69      21.50      12.44
H       2.56       3.60      12.45
H       0.99       2.83      12.46
H       8.67      20.81       9.71
H       8.75      21.67      15.58
H       5.93       2.65       8.89
H       5.24      16.45       5.26
C       7.21      10.14       1.68
C       1.07      12.49       0.01
C      12.91      23.98      12.32
C       1.77       0.35      12.33
C      12.81      10.65      24.42
C       1.87      13.67       0.05
C      12.11      22.79      12.35
C       2.56       1.53      12.39
C      11.40      10.81      24.42
C       3.27      13.51       0.04
C      10.71      22.96      12.31
C       7.46      14.18      22.78
C       3.97       1.37      12.35
C       7.29       9.50      21.31
C       7.39      14.81       3.15
C       7.48      15.32      21.80
C       7.19       9.00       2.66
C       6.55      21.16       9.57
C       8.12       3.16      14.90
C       8.08       2.66       9.07
C       6.62      21.66      15.38
C       8.50       9.10      20.72
C       7.37      13.86       2.00
C       6.18      15.22       3.74
C       6.29      15.99      21.47
C       8.38       8.34       2.99
C       7.74      20.49       9.24
C       6.93       3.83      15.23
C       6.86       3.07       8.49
C       7.83      21.25      15.97
C       8.50       8.19      19.67
C       6.17      16.12       4.80
C       6.29      17.03      20.55
C       7.31      10.47      22.47
C       8.39       7.30       3.91
C       7.74      19.45       8.32
C       6.93       4.87      16.15
C       6.85       3.97       7.44
C       7.84      20.35      17.03
C       7.28       7.68      19.19
C       7.39      16.64       5.28
C       7.50      17.40      19.93
C       7.18       6.92       4.53
C       6.53      19.07       7.70
C       6.63      22.62      14.23
C       8.14       5.24      16.77
C       8.06       4.49       6.95
C       6.62      19.84      17.51
C       6.07       8.11      19.76
C       8.60      16.21       4.71
C       8.69      16.75      20.28
C       5.98       7.57       4.19
C       5.33      19.73       8.05
C       9.34       4.59      16.42
C       9.28       4.07       7.52
C       8.07       1.70      10.23
C       5.41      20.26      16.94
C       6.07       9.01      20.82
C       8.60      15.31       3.65
C       8.69      15.72      21.20
C       5.99       8.61       3.26
C       5.34      20.76       8.97
C       9.32       3.55      15.49
C       9.28       3.16       8.57
C       5.40      21.16      15.88
C      11.49      13.12       0.02
C       8.09       2.02      13.92
C       3.18      11.20      24.44
C      12.19       0.97      12.22
C       2.48      23.35      12.22
C      12.87      13.07       0.02
C       1.80      11.25      24.44
C      13.57       0.92      12.26
C       1.11      23.41      12.24
C       6.58      22.30      10.54
C      13.60      11.83      24.46
N       7.16       6.71      18.17
N       3.85      12.31       0.00
N      10.13      24.15      12.25
N       4.55       0.17      12.27
N      14.98      11.63      24.44
N      -0.30      12.68       0.04
N      14.28      23.78      12.34
N       0.39       0.54      12.34
N      13.38       9.41      24.41
N       1.30      14.90       0.06
N      12.68      21.57      12.43
N       7.51      17.60       6.30
N       2.00       2.76      12.49
N       7.61      18.40      18.94
N       7.07       5.93       5.53
N       6.41      18.08       6.71
N       8.26       6.23      17.77
N       8.17       5.46       5.93
N       6.51      18.87      18.54
N      10.82      12.01      24.46
O       6.09      10.62       1.33
O       6.32      13.78      23.17
O       6.22      13.51       1.55
O       8.45      10.81      22.91
O       7.77      22.95      13.77
O       6.92       1.35      10.67
O       6.94       1.63      13.53
O       7.72      22.71      10.92
O       8.59      13.70      23.14
O       8.49      13.46       1.55
O       6.18      10.86      22.92
O       5.50      23.02      13.79
O       9.19       1.32      10.68
O       9.21       1.54      13.56
O       5.45      22.77      10.91
O       8.36      10.54       1.29
