216

Zn       6.47      20.30      11.72
Zn       3.94      10.66      17.28
Zn       3.94      21.33      13.50
Zn       1.40      20.30       0.59
Zn       1.40      22.36      11.72
Zn       6.47       1.03       0.59
H       0.42      15.72      12.51
H       3.89      20.15       9.08
H       1.36      12.85      15.83
H       7.52      17.70       3.30
H       3.98      20.14       3.22
H       0.36      17.69       9.02
H       5.42      11.72      13.67
H       1.45      17.94      12.89
H       2.39      13.63      13.72
H       4.92      18.71       7.35
H       1.37      16.24       7.32
H       2.95      18.70       4.95
H       4.99      16.65      10.82
H       3.97      14.45      10.41
H       6.51      16.25       5.01
H       6.43      12.47      11.57
H       5.49      24.30      17.07
H       1.35      19.12      14.95
H       6.43      28.61      17.90
H       4.99       4.68       1.49
H       1.45      14.05      17.89
H       5.43      20.29      17.11
H       2.88      16.65       1.48
H       6.52      23.52      14.96
H       7.46      26.39      18.28
H       2.38      18.34      17.06
H       6.44       8.88       0.75
H       0.42      16.26      18.27
H       2.45      22.37      17.11
H       1.44      12.46       0.75
H       3.97       6.88       1.90
H       3.90      14.45       1.89
H       2.95      23.96       7.36
H       6.42      24.72      12.90
H       3.90      22.52       3.22
H       2.45       9.62      13.67
H       6.52      29.80      15.83
H       2.89      26.00      10.81
H       0.35       3.63       3.31
H       3.98      22.52       9.09
H       4.93      23.96       4.94
H       7.45      26.93      12.52
H       3.91       6.87      10.41
H       5.49      29.02      13.72
H       7.52      24.96       9.01
H       6.51       5.08       7.31
H       1.44       8.87      11.57
H       1.36       5.08       5.01
C       1.40      19.87      10.18
C       6.47      19.87       2.13
C       3.94      18.75      12.11
C       6.47      11.78      16.14
C       3.29      17.43      11.89
C       5.83      19.02       3.17
C       2.05      19.02       9.15
C       7.12      12.25      14.88
C       1.42      15.92      12.14
C       3.34      19.30       8.68
C       0.81      12.79      14.89
C       6.52      17.91       3.68
C       4.53      19.29       3.63
C       1.35      17.91       8.64
C       6.42      12.15      13.68
C       2.00      17.16      12.37
C       4.65      17.37       5.12
C       1.39      13.21      13.70
C       3.92      18.48       7.71
C       0.69      13.11      12.48
C       1.93      17.09       7.68
C       3.94      16.49       6.16
C       3.96      18.47       4.59
C       1.41      13.58      11.20
C       3.99      16.44      11.19
C       3.41      15.19      10.97
C       5.94      17.10       4.64
C       4.92      15.57       6.95
C       7.00      12.57      12.49
C       2.95      15.57       5.36
C       2.12      14.92      11.44
C       3.22      17.37       7.20
C       2.39      12.43      10.81
C       0.42      13.81      10.01
C       6.47      20.21      14.64
C       3.94       2.57       0.20
C       1.40      22.44      14.64
C       3.94      18.75       0.20
C       0.76      22.91      15.90
C       3.29       3.90       0.42
C       7.12      19.74      15.90
C       4.58      17.43       0.42
C       6.49      23.88      17.08
C       0.80      19.19      15.89
C       5.88      27.83      18.42
C       3.99       4.89       1.12
C       2.00      14.83      18.42
C       6.42      19.86      17.11
C       3.89      16.43       1.11
C       7.07      23.46      15.89
C       2.12       6.41       0.87
C       6.45      15.92       0.18
C       1.38      18.77      17.08
C       5.76      14.92       0.87
C       7.00      19.43      18.30
C       1.40       7.75       1.11
C       1.42       5.41       0.17
C       6.47      13.58       1.11
C       1.45      22.80      17.11
C       0.87      23.23      18.30
C       3.41       6.13       1.34
C       2.39       8.90       1.51
C       4.47      15.19       1.34
C       0.42       7.52       2.30
C       7.19      23.78      18.30
C       0.69      18.87      18.30
C       7.46      13.81       2.31
C       5.49      12.43       1.51
C       3.94      23.90      12.12
C       1.40       9.55      16.14
C       6.47      22.79      10.18
C       1.40       1.46       2.13
C       5.83      23.64       9.15
C       0.76       9.08      14.89
C       4.58      25.23      11.90
C       2.05       2.31       3.17
C       3.96      24.18       7.72
C       5.87      25.49      12.37
C       3.34      23.37       3.63
C       1.45       9.19      13.68
C       7.07      29.87      14.89
C       3.89      26.22      11.19
C       1.35       3.41       3.68
C       4.54      23.36       8.68
C       7.19       8.21      12.49
C       3.92       2.86       4.59
C       6.45      26.74      12.15
C       3.22       3.96       5.11
C       4.47      27.46      10.97
C       6.47       7.75      11.20
C       6.49       8.11      13.70
C       3.94       4.84       6.16
C       6.52      24.74       8.64
C       5.94      25.56       7.67
C       0.87       8.76      12.49
C       7.46       7.52      10.01
C       1.93       4.23       4.65
C       5.49       8.90      10.81
C       4.66      25.29       7.20
C       5.76      27.74      11.45
C       4.93       5.76       5.36
C       2.96       5.76       6.95
O       5.35      11.21      16.03
O       0.28      19.48      10.63
O       5.84      20.92       1.76
O       5.06      18.94      11.55
O       3.31      19.60      12.84
O       7.10      11.99      17.24
O       2.03      20.93      10.55
O       7.60      19.48       1.69
O       2.81      18.94       0.75
O       5.35      20.79      14.76
O       3.31      12.39      17.94
O       2.53      21.86      14.76
O       0.77      22.65      13.55
O       4.57      30.26      17.94
O       7.10      20.00      13.54
O       5.06       2.39       0.76
O       0.28       1.85       1.69
O       2.81      23.71      11.56
O       0.77      30.67      17.24
O       7.60      23.18      10.63
O       5.84      21.73      10.55
O       2.03      21.73       1.76
O       4.56      23.06      12.85
O       2.53      10.12      16.03
F       7.47      12.66       9.53
F       3.42      12.34      11.70
F       2.95      12.58       9.58
F       1.93      16.30       4.83
F       7.00      14.63      10.37
F       5.48      14.59       6.20
F       2.40      14.59       6.11
F       5.95      16.31       7.48
F       1.05      14.40       8.96
F       4.30      14.97       8.00
F       1.77      11.22      10.80
F       3.58      14.97       4.32
F       4.93      12.59       2.74
F       0.88      14.63       1.93
F       0.41      12.66       2.78
F       6.99       6.70       1.93
F       4.46      12.33       0.61
F       2.95       8.74       2.74
F       7.47       8.67       2.78
F       3.41       8.99       0.61
F       6.12      11.22       1.52
F       1.77      10.11       1.51
F       6.84      14.41       3.35
F       1.04       6.92       3.35
F       2.40       6.74       6.20
F       5.95       5.02       4.83
F       5.48       6.74       6.11
F       4.46       8.99      11.70
F       1.93       5.03       7.48
F       0.41       8.66       9.53
F       4.93       8.74       9.57
F       0.88       6.69      10.38
F       3.58       6.37       7.99
F       6.83       6.92       8.96
F       4.30       6.36       4.31
F       6.11      10.11      10.80
