154

Zn       6.45       5.59      14.01
Zn       6.41       8.37      14.00
Zn       6.41       8.32       1.24
Zn       6.37       5.55       1.24
H       4.97       3.48      15.50
H       4.02       1.28      16.44
H       7.87       3.53      12.58
H       7.91      10.48      12.55
H       8.86      12.67      11.62
H       4.99      10.42      15.45
H       6.46       9.17      18.28
H       6.48      10.42      20.45
H       6.44       4.91      18.20
H       6.48       4.83      25.03
H       6.46       3.58      22.86
H       6.49       9.09      25.12
H       5.03      10.54      27.82
H       4.10      12.74      26.88
H       7.85      10.38       2.65
H       7.88       3.42       2.69
H       8.83       1.22       3.61
H       5.06       3.59      27.87
H       3.91      11.62      16.54
H       8.96       2.33      11.50
H       6.52      10.50      23.97
H       6.47       3.51      19.35
H       3.96       2.40      26.78
H       8.95      11.56       3.72
H       7.33       9.73      10.11
H       6.43      10.17       8.63
H       5.57       9.72      10.14
H       7.30       4.17       5.13
H       6.40       3.73       6.61
H       5.54       4.19       5.11
H       2.55       4.20      14.92
H       1.08       3.76      14.02
H       2.58       4.21      13.16
H      10.30       9.74      14.91
H      11.80      10.19      14.05
H      10.32       9.75      13.15
H       2.51       9.72       0.35
H       1.04      10.17       1.26
H       2.55       9.72       2.11
H      10.25       4.18       0.39
H      11.76       3.74       1.24
H      10.28       4.18       2.14
C       6.42       7.03      16.63
C       3.81       7.02      14.03
C       6.45       6.92      11.38
C       9.06       6.94      14.00
C       6.48       6.97      26.68
C       3.77       6.91       1.24
C       6.42       6.98       3.87
C       9.02       6.99       1.25
C       5.60       2.87      14.86
C       5.56       1.46      14.90
C       4.69       0.74      15.77
C       7.25       2.88      13.21
C       7.30       1.48      13.16
C       8.18       0.73      12.28
C       7.27      11.09      13.19
C       7.32      12.49      13.15
C       8.19      13.21      12.29
C       5.62      11.08      14.84
C       5.58      12.47      14.90
C       4.70      13.22      15.78
C       6.43       0.76      14.03
C       6.45      13.20      14.03
C       6.44       8.07       9.07
C       6.43       5.83       6.18
C       6.44       6.95       9.90
C       6.43       6.95       5.34
C       6.44       6.25       7.53
C       6.44       7.65       7.71
C       6.45       8.24      18.84
C       6.46       8.25      20.24
C       6.47       9.47      20.98
C       6.44       5.81      18.82
C       6.44       5.77      20.22
C       6.45       4.54      20.96
C       6.47       5.76      24.47
C       6.46       5.75      23.07
C       6.45       4.53      22.33
C       6.48       8.19      24.50
C       6.47       8.23      23.10
C       6.48       9.46      22.35
C       6.43       7.03      18.13
C       6.45       7.00      20.95
C       6.47       6.97      25.18
C       6.46       7.00      22.37
C       1.51       5.86      14.03
C      11.36       8.09      14.03
C       2.34       6.97      14.04
C      10.53       6.97      14.01
C      12.72       7.67      14.04
C       0.15       6.28      14.03
C       5.57      11.05       0.39
C       5.54      12.45       0.34
C       4.78      13.28      27.55
C       7.23      11.03       2.03
C       7.29      12.43       2.08
C       8.18      13.16       2.95
C       7.23       2.82       2.05
C       7.28       1.41       2.08
C       8.15       0.69       2.95
C       5.57       2.84       0.41
C       5.52       1.44       0.35
C       4.75       0.80      27.54
C       6.42      13.15       1.21
C       6.40       0.71       1.21
C       1.47       8.07       1.25
C      11.32       5.84       1.25
C       2.30       6.95       1.24
C      10.49       6.95       1.25
C      12.67       6.26       1.25
C       0.11       7.65       1.25
C       6.44       9.50       9.50
C       6.42       4.40       5.74
C       1.95       4.43      14.03
C      10.93       9.52      14.04
C       1.91       9.50       1.24
C      10.88       4.41       1.25
S       6.44       5.43       9.05
S       6.43       8.47       6.19
S       1.49       8.49      14.04
S      11.38       5.45      14.02
S       1.44       5.43       1.25
S      11.34       8.47       1.25
N       6.42       3.53      14.04
N       6.44      10.42      14.00
N       6.39      10.38       1.21
N       6.41       3.49       1.24
O       6.44       5.90      16.05
O       6.40       8.16      16.05
O       4.36       8.17      14.03
O       4.43       5.90      14.01
O       6.42       8.05      11.98
O       6.48       5.77      11.94
O       8.50       5.79      13.98
O       8.45       8.06      14.00
O       6.50       8.10      27.26
O       6.45       5.84      27.26
O       4.32       5.75       1.23
O       4.38       8.03       1.25
O       6.40       5.85       3.27
O       6.44       8.13       3.31
O       8.46       8.14       1.26
O       8.41       5.86       1.24
O       3.85      12.59      16.63
O       9.03       1.36      11.43
O       6.49      10.67      23.01
O       6.44       3.34      20.30
O       3.89       1.43      26.70
O       9.03      12.53       3.80
