58

Al       4.36       2.81       7.99
Al       0.97       2.78       7.99
H      -0.75       2.09       6.39
H       2.68       4.21       9.03
H       1.29       2.54      11.98
H       1.52       1.75      14.34
H      -2.51       0.27      14.19
H       4.38       5.52       1.85
H       0.40       3.93       1.62
H       0.64       3.07       3.96
H       0.53      -1.17       7.63
H       4.79      -1.32       8.17
H      -2.74       6.92       7.65
H       2.97       0.41      12.31
H       3.83       0.31      10.76
H       3.21       1.86      11.28
H      -1.27       3.92       4.67
H      -2.00       5.38       5.31
H      -1.14       5.44       3.74
C       2.69       0.40       7.91
C       2.64       3.31       5.63
C      -0.75       5.20       8.05
C      -0.72       2.28      10.33
C      -0.72       1.84      11.75
C       0.47       2.04      12.48
C       0.60       1.61      13.78
C      -0.48       0.95      14.39
C      -1.68       0.78      13.68
C      -1.83       1.21      12.36
C       3.57       4.98       2.34
C       2.38       4.79       1.61
C       1.31       4.09       2.19
C       1.45       3.62       3.48
C       2.63       3.82       4.23
C       3.72       4.52       3.65
C      -0.66       6.70       7.97
C       2.65      -1.10       7.93
C       0.55       7.39       8.08
C       1.43      -1.76       7.77
C       3.83      -1.84       8.08
C      -1.82       7.46       7.79
C       3.67       0.93      11.65
C      -1.80       4.83       4.37
N      -0.47       0.41      15.70
N       2.37       5.34       0.31
N       1.81       6.63       8.11
O       3.83       0.95       8.00
O       1.50       3.17       6.19
O       0.35       4.59       8.21
O      -1.82       2.58       9.77
O      -1.90       4.68       7.98
O       0.43       2.35       9.76
O       1.57       0.98       7.81
O       3.76       3.03       6.17
O      -0.74       2.30       7.33
O       2.67       3.32       8.62
O       2.26       6.33       7.00
O       2.34       6.41       9.20
