216

Zn       8.57       8.92       4.30
Zn       2.86       2.97       8.98
Zn       2.86       2.97      22.26
Zn       8.57       8.92      17.58
H       1.32       7.14      22.16
H       3.90      10.70      22.16
H       0.89       7.56      17.68
H       4.34      10.29      17.68
H      10.10       4.76       4.40
H       7.52       1.19       4.40
H      10.54       4.34       8.88
H       7.08       1.61       8.88
H      11.53       7.40      20.31
H       5.61      10.45      20.31
H       1.21       5.87      19.53
H       4.50       0.08      19.53
H      -0.10       4.50       6.25
H       5.82       1.45       6.25
H      10.21       6.03       7.03
H       6.92      11.82       7.03
H      11.27      11.58      21.29
H       5.87       6.27      21.29
H       5.40       5.78      18.55
H       0.31       0.17      18.55
H       0.16       0.32       5.27
H       5.55       5.63       5.27
H       6.02       6.12       8.01
H      11.11      11.73       8.01
H       1.04      11.20      23.11
H       4.18       6.64      23.11
H       4.96       7.45      16.73
H       0.27      10.40      16.73
H      10.38       0.69       3.45
H       7.24       5.26       3.45
H       6.47       4.45       9.83
H      11.15       1.50       9.83
H       4.58      10.66      25.60
H       0.65       7.19      25.60
H       4.26      10.96      14.24
H       0.96       6.89      14.24
H       6.85       1.24       0.96
H      10.77       4.71       0.96
H       7.16       0.94      12.32
H      10.46       5.01      12.32
H       6.19      10.38       0.98
H      10.95       7.46       0.98
H       4.41       0.66      12.30
H       1.30       5.29      12.30
H       5.23       1.52      25.58
H       0.48       4.43      25.58
H       7.01      11.24      14.26
H      10.12       6.61      14.26
H       5.07       6.24       1.13
H       0.15      11.61       1.13
H      -0.17      11.27      12.15
H       5.40       6.58      12.15
H       6.35       5.66      25.43
H      11.27       0.29      25.43
H      11.59       0.63      14.41
H       6.03       5.32      14.41
H       3.51       6.64      25.77
H       1.71      11.21      25.77
H       0.30       9.73      14.07
H       4.93       8.12      14.07
H       7.91       5.26       0.79
H       9.71       0.69       0.79
H      11.13       2.17      12.49
H       6.49       3.78      12.49
Pd       2.61       8.92      24.15
Pd       2.61       8.92      15.69
Pd       8.81       2.97       2.41
Pd       8.81       2.97      10.87
C       0.70      10.38      22.48
C       4.53       7.46      22.48
C       4.15       7.07      17.36
C       1.08      10.78      17.36
C      10.72       1.52       4.08
C       6.90       4.43       4.08
C       7.27       4.83       9.20
C      10.35       1.12       9.20
C      -0.23      10.59      21.47
C       5.46       7.26      21.47
C       4.39       6.15      18.37
C       0.83      11.70      18.37
C      11.65       1.31       5.09
C       5.96       4.64       5.09
C       7.03       5.75       8.19
C      10.59       0.20       8.19
C      11.29       9.51      20.66
C       5.85       8.34      20.66
C       3.33       5.72      19.18
C       2.38       0.23      19.18
C       0.14       2.39       5.90
C       5.58       3.56       5.90
C       8.09       6.18       7.38
C       9.04      11.67       7.38
C      10.28       9.72      19.55
C       6.85       8.12      19.55
C       3.59       4.72      20.29
C       2.13       1.23      20.29
C       1.14       2.17       7.01
C       4.57       3.77       7.01
C       7.84       7.18       6.27
C       9.30      10.67       6.27
C      -0.07       8.25      20.92
C       5.30       9.60      20.92
C       2.05       6.21      18.92
C       3.17      11.64      18.92
C      11.50       3.65       5.64
C       6.12       2.30       5.64
C       9.37       5.69       7.64
C       8.25       0.26       7.64
C       0.85       8.10      21.94
C       4.37       9.74      21.94
C       1.86       7.13      17.90
C       3.36      10.72      17.90
C      10.57       3.80       4.62
C       7.05       2.15       4.62
C       9.56       4.77       8.66
C       8.06       1.18       8.66
C       4.09       7.45      26.21
C       1.13      10.39      26.21
C       1.08      10.34      13.63
C       4.14       7.50      13.63
C       7.33       4.45       0.35
C      10.29       1.50       0.35
C      10.34       1.55      12.93
C       7.28       4.40      12.93
C       4.97       7.23       0.70
C       0.25      10.62       0.70
C       0.83      11.21      12.58
C       4.40       6.63      12.58
C       6.45       4.67      25.86
C      11.17       1.28      25.86
C      10.60       0.68      13.98
C       7.02       5.27      13.98
C       5.76       8.28       1.18
C      11.37       9.57       1.18
C       2.33       0.15      12.10
C       3.38       5.80      12.10
C       5.66       3.62      25.38
C       0.05       2.33      25.38
C       9.09      11.75      14.46
C       8.04       6.10      14.46
C       5.60       9.54       0.60
C      11.53       8.30       0.60
C       3.60       0.04      12.68
C       2.11       5.91      12.68
C       5.82       2.35      25.96
C      -0.11       3.59      25.96
C       7.83      11.86      13.88
C       9.31       5.99      13.88
C       4.72       9.70      26.10
C       0.51       8.15      26.10
C       3.30      11.06      13.74
C       1.92       6.79      13.74
C       6.70       2.20       0.46
C      10.92       3.75       0.46
C       8.12       0.84      12.82
C       9.50       5.11      12.82
C       6.82       8.04       2.24
C      10.32       9.81       2.24
C       2.04       1.19      11.04
C       3.67       4.76      11.04
C       4.60       3.86      24.32
C       1.11       2.09      24.32
C       9.38      10.71      15.52
C       7.75       7.14      15.52
N       3.98       8.67      25.63
N       1.24       9.18      25.63
N       2.30      10.28      14.21
N       2.92       7.56      14.21
N       7.44       3.23       0.93
N      10.18       2.72       0.93
N       9.12       1.61      12.35
N       8.50       4.33      12.35
N       1.23       9.16      22.70
N       4.00       8.69      22.70
N       2.90       7.55      17.14
N       2.32      10.30      17.14
N      10.20       2.74       3.86
N       7.42       3.21       3.86
N       8.52       4.35       9.42
N       9.10       1.60       9.42
O      10.19       8.74      18.71
O       6.94       9.11      18.71
O       2.60       4.59      21.13
O       3.11       1.36      21.13
O       1.23       3.16       7.85
O       4.48       2.79       7.85
O       8.82       7.30       5.43
O       8.32      10.54       5.43
O       9.64      10.79      19.52
O       7.50       7.06      19.52
O       4.67       4.12      20.32
O       1.04       1.83      20.32
O       1.79       1.11       7.04
O       3.93       4.84       7.04
O       6.75       7.78       6.24
O      10.38      10.07       6.24
O       7.05       9.04       3.00
O      10.09       8.81       3.00
O       3.04       1.46      10.28
O       2.68       4.49      10.28
O       4.38       2.86      23.56
O       1.34       3.09      23.56
O       8.39      10.44      16.28
O       8.75       7.41      16.28
O       7.38       6.92       2.24
O       9.76      10.93       2.24
O       0.90       1.70      11.04
O       4.81       4.25      11.04
O       4.05       4.98      24.32
O       1.66       0.97      24.32
O      10.52      10.20      15.52
O       6.61       7.65      15.52
