62

Al       6.32       7.39       8.76
Al       2.98       7.39       8.76
H       4.64       6.35      10.17
H       7.99       8.42       7.35
H       6.71       6.87       4.76
H       6.80       6.82       2.27
H       2.69       8.15       2.15
H       9.95       6.62      15.37
H       5.92       7.90      12.76
H       5.83       7.95      15.25
H       9.02      13.86       9.16
H       3.61       0.91       8.36
H       5.95       3.28       8.74
H       5.99       0.84       8.93
H       6.68      11.50       8.78
H       6.64      13.93       8.59
H       9.04      10.37       9.37
H       3.59       4.40       8.14
C       8.03       4.96       8.47
C       7.95       7.29      11.17
C       4.61       9.81       9.04
C       4.68       7.48       6.35
C       4.67       7.50       4.86
C       5.84       7.14       4.16
C       5.89       7.11       2.78
C       4.75       7.47       2.02
C       3.58       7.85       2.70
C       3.55       7.85       4.08
C       4.80       7.47       0.61
C       7.84       7.30      16.91
C       7.88       7.30      15.49
C       9.06       6.92      14.82
C       9.08       6.92      13.43
C       7.96       7.27      12.66
C       6.79       7.63      13.35
C       6.74       7.66      14.74
C       4.56      11.28       9.04
C       8.07       3.49       8.48
C      10.01      11.98       9.17
C      10.00      13.38       9.06
C       2.62       2.79       8.35
C       2.64       1.39       8.46
C       6.90       2.75       8.67
C       6.93       1.37       8.77
C       5.73      12.02       8.85
C       5.70      13.40       8.75
C       4.48      14.11       8.83
C       8.15       0.66       8.68
O       6.92       5.55       8.67
O       9.05       7.14      10.55
O       3.48       9.19       9.21
O       5.82       7.32       6.91
O       5.72       9.22       8.85
O       3.58       7.63       6.96
O       9.16       5.58       8.31
O       6.82       7.45      10.61
O       4.64       6.74       9.28
O       7.99       8.04       8.24
O       8.83      11.35       9.38
O       3.80       3.42       8.13
F       9.06       8.24       4.67
F       3.57       6.54      12.85
