169

Cd      13.25      13.89      13.71
Cd       1.01       1.85       3.44
Cd       7.13       7.87       8.58
H       7.55       4.52      11.95
H       8.30      13.94      13.71
H       3.25       4.38      12.16
H       5.25      11.60      12.47
H       4.40       9.18      11.34
H      11.26      11.39      12.69
H      10.87       9.36      11.01
H      12.30       8.43      10.55
H       3.11       8.20      13.59
H       2.63       6.45      15.24
H       9.16       5.52      13.19
H       9.60       7.35      11.57
H      10.65       3.77      14.66
H       9.67       4.81      15.70
H       3.13       3.81      15.27
H       2.92       1.03       0.68
H       9.11       2.30       0.88
H       6.70      11.22       5.21
H       5.96       1.80       3.44
H      11.01      11.36       4.99
H       9.00       4.14       4.68
H       9.85       6.56       5.81
H       3.00       4.35       4.46
H       3.38       6.38       6.14
H       1.95       7.31       6.60
H      11.15       7.53       3.56
H      11.63       9.29       1.92
H       5.10      10.22       3.96
H       4.65       8.39       5.58
H       3.61      11.97       2.49
H       4.59      10.93       1.45
H      11.12      11.92       1.88
H      11.33      14.70      16.48
H       5.14      13.44      16.27
H      10.63       7.97       8.19
H       2.11       6.02       9.35
H       8.28       4.80       9.64
H       1.65       4.00      10.71
H      10.20       3.63      11.17
H       3.80      14.09      11.01
H      10.45       3.68       7.54
H       9.18      10.54       8.71
H       8.24      11.34      12.76
H       7.04       8.93      11.97
H      10.71      12.37      10.38
H       9.63      13.03      11.61
H       7.03      13.30      10.34
H      10.92      13.80       8.55
H       3.62       7.77       8.96
H      12.15       9.72       7.80
H       5.98      10.94       7.51
H      12.61      11.74       6.44
H       4.05      12.11       5.98
H      10.46       1.64       6.14
H       3.81      12.06       9.61
H       5.07       5.20       8.45
H       6.02       4.39       4.39
H       7.21       6.81       5.18
H       3.54       3.37       6.77
H       4.62       2.71       5.54
H       7.22       2.44       6.81
H       3.33       1.94       8.60
C       5.39       4.58      11.98
C       6.64       4.01      12.24
C       6.71       2.76      12.87
C      10.75      14.94      13.16
C       8.25      14.92      13.23
C       4.29       2.67      12.97
C       5.75      14.74      13.32
C       4.22       3.93      12.36
C       4.26      11.20      12.32
C       3.85      10.02      11.75
C      12.29      11.14      12.46
C      11.80       8.92      11.40
C      11.50       7.90      12.47
C      12.39       7.64      13.51
C      12.12       6.64      14.44
C      10.96       5.86      14.32
C      10.06       6.13      13.28
C      10.32       7.14      12.37
C      10.66       4.70      15.25
C       2.72       4.12      16.22
C       1.92       1.27       0.33
C      10.06       1.95       0.48
C       8.86      11.15       5.17
C       7.62      11.73       4.91
C       7.55      12.98       4.28
C       3.51       0.80       3.99
C       6.01       0.82       3.92
C       9.97      13.07       4.18
C       8.51       1.00       3.83
C      10.04      11.81       4.80
C      10.00       4.54       4.83
C      10.40       5.72       5.40
C       1.97       4.60       4.69
C       2.45       6.82       5.75
C       2.76       7.84       4.68
C       1.87       8.09       3.64
C       2.14       9.10       2.72
C       3.29       9.88       2.83
C       4.19       9.61       3.87
C       3.94       8.59       4.78
C       3.59      11.04       1.90
C      11.54      11.62       0.93
C      12.33      14.46      16.82
C       4.19      13.78      16.67
C      10.41       7.02       8.66
C      11.24       6.06       9.19
C       9.14       5.40       9.37
C      10.85       3.82      10.30
C      10.86       2.62       9.39
C       3.60      14.18       9.94
C      10.64       2.71       8.01
C       8.76      10.41       9.70
C       8.25      10.80      11.82
C       7.67       9.63      11.41
C       9.66      12.56      10.62
C       9.05      13.46       9.57
C       7.67      13.73       9.57
C       9.85      14.01       8.56
C       3.85       8.72       8.49
C       3.01       9.68       7.96
C       5.12      10.33       7.78
C       3.40      11.92       6.85
C       3.39      13.12       7.77
C      10.65       1.56       7.21
C       3.61      13.03       9.15
C       5.49       5.32       7.45
C       6.00       4.93       5.33
C       6.59       6.11       5.74
C       4.60       3.17       6.54
C       5.21       2.28       7.59
C       6.58       2.01       7.58
C       4.40       1.72       8.59
S       5.26       6.18      11.18
S       8.99       9.56       5.98
N       3.14      11.89      12.76
N      12.68      10.00      11.84
N      11.62       4.55      16.34
N       0.95       1.74       1.20
N      11.12       3.85       4.40
N       1.58       5.74       5.32
N       2.64      11.19       0.81
N      13.30      14.00      15.95
N       9.10       6.59       8.78
N      10.42       5.05       9.65
N       7.99       9.40      10.09
N       8.95      11.29      10.72
N       5.16       9.14       8.38
N       3.84      10.69       7.50
N       6.26       6.34       7.06
N       5.31       4.45       6.43
O       6.47       6.27      10.32
O       5.24       7.19      12.23
O       4.03       6.10      10.38
O       9.09       2.81      12.99
O      10.77      13.73      13.57
O       5.82      13.62      13.90
O       1.92       2.49      13.00
O       7.78       9.47       6.83
O       9.02       8.54       4.92
O      10.23       9.64       6.77
O       5.16      12.93       4.17
O       3.48       2.00       3.58
O       8.44       2.12       3.25
O      12.33      13.24       4.15
