244

Zn      20.20       8.95      16.30
Zn      18.56      10.01      13.77
Zn      18.52      11.71      16.45
Zn      16.97       8.89      16.28
Zn      26.24      15.83      23.00
Zn      27.80      13.03      22.81
Zn      27.89      14.71      25.53
Zn      29.45      15.78      22.92
Zn       9.28       4.85       9.84
Zn      10.86       5.91       7.25
Zn       7.69       5.89       7.21
Zn       9.33       3.12       7.11
Zn      18.61       1.82       0.75
Zn      26.21      16.47       0.60
Zn      10.85      16.45       0.62
Zn       9.33       2.47      29.46
H      16.46       2.13      20.59
H       9.28       1.36      12.61
H      26.08      10.48      19.53
H      25.19       9.89      20.96
H      23.41       8.94      19.45
H      24.30       9.53      18.02
H      11.04       6.70      13.54
H      11.93       5.16      13.46
H      13.71       6.11      14.97
H      12.82       7.65      15.05
H       6.64       5.15      13.45
H       7.53       6.70      13.53
H      24.31       7.65      15.04
H      23.41       6.11      14.96
H      14.13      15.79      19.83
H      15.02      15.20      21.25
H      16.80      14.25      19.74
H      15.91      14.84      18.32
H      27.84       8.20      30.24
H      20.33      18.02      25.74
H      11.93       2.14      25.83
H      23.00      18.62      24.32
H      22.11      17.07      24.23
H      32.28      16.00      30.67
H      31.39      17.54      30.75
H      29.60      16.59      29.24
H      30.50      15.05      29.16
H      25.71      12.70       2.97
H      22.10      17.05       2.31
H      23.00      16.46       3.73
H      21.22      17.41       5.24
H      11.04       0.58       3.82
H      21.22       4.95       2.61
H      20.32       4.36       4.04
H      22.11       5.31       5.55
H       4.44       5.90       4.12
C      21.12       8.54      13.54
C      18.55      12.95      13.77
C      21.11      11.27      17.86
C      16.00      11.24      17.86
C      18.60       6.83      17.62
C      16.01       8.52      13.54
C      25.27      13.50      21.41
C      27.84      11.77      25.47
C      25.31      16.20      25.74
C      30.41      16.19      25.71
C      27.84      17.90      21.63
C      30.38      13.47      21.39
C      11.83       6.31      10.02
C       9.29       8.00       5.92
C       6.73       6.30      10.01
C       6.75       3.57       5.68
C       9.29       1.89       9.79
C      11.85       3.59       5.69
C      16.02       1.36       2.16
C       9.25      14.36       1.93
C       2.56       1.35       2.16
C      21.12      18.41      29.27
C      27.87       5.42      29.49
C      34.58      18.42      29.26
C      19.68       4.86      18.88
C      17.48       2.44      20.40
C      18.60       5.60      18.41
C      18.57       1.73      20.85
C      17.89       3.59      19.68
C      19.29       3.71      19.60
C      18.56      14.34      11.61
C      18.56      17.93      11.94
C      18.56      14.19      12.99
C      18.56      18.06      10.57
C      18.56      16.57      12.32
C      18.56      15.70      11.21
C      24.21      12.96      20.51
C      22.14      11.85      18.76
C      24.26      11.66      20.00
C      22.08      13.16      19.27
C      23.27      11.13      19.16
C      23.08      13.70      20.12
C      25.08      10.39      19.98
C      23.97       9.79      19.04
C      12.90       6.88      10.88
C      14.97       7.98      12.63
C      12.85       6.78      12.28
C      15.03       8.08      11.22
C      13.84       7.31      13.11
C      14.03       7.55      10.38
C      12.03       6.25      13.43
C      13.15       6.84      14.38
C      24.22       6.87      10.87
C      22.16       7.98      12.63
C      24.27       6.78      12.27
C      22.10       8.08      11.22
C      23.29       7.31      13.10
C      23.09       7.55      10.38
C      25.09       6.25      13.42
C      23.97       6.84      14.37
C      12.87      12.88      20.51
C      14.94      11.77      18.76
C      14.00      13.59      20.11
C      13.80      11.03      19.16
C      14.98      13.07      19.28
C      12.81      11.56      20.00
C      14.69      14.94      20.24
C      15.81      14.34      19.29
C      27.84       9.21      25.80
C      27.84       7.96      29.17
C      27.84      10.52      26.25
C      27.85       6.66      28.70
C      27.84       8.89      28.11
C      27.84       8.27      26.84
C      22.19      17.84      28.40
C      24.26      16.74      26.65
C      22.15      17.94      27.01
C      24.32      16.64      28.06
C      23.13      17.41      26.17
C      23.32      17.17      28.90
C      21.32      18.47      25.85
C      22.44      17.88      24.91
C      33.54      17.88      28.34
C      31.47      16.77      26.58
C      32.41      17.20      28.81
C      32.61      17.45      26.09
C      31.43      16.68      27.98
C      33.60      17.98      26.93
C      31.72      16.74      30.08
C      30.60      16.14      29.13
C      10.38       9.99       4.68
C       8.18      12.40       3.17
C       9.30       9.25       5.15
C       9.27      13.11       2.71
C       8.59      11.26       3.89
C       9.99      11.13       3.96
C      14.98       1.95       3.05
C      12.91       3.05       4.80
C      13.85       1.23       3.45
C      14.05       3.79       4.40
C      12.87       1.75       4.28
C      15.04       3.26       3.56
C      22.44      17.31       3.32
C      12.04       0.48       4.27
C       3.63       1.89       3.05
C       5.70       2.99       4.80
C       3.58       3.19       3.57
C       5.76       1.67       4.29
C       4.57       3.71       4.40
C       4.76       1.15       3.45
C      21.32       4.46       3.59
C       3.88       5.05       4.53
S      17.08       4.87      18.87
S      20.11       2.42      20.41
S      18.56      15.72      13.82
S      18.56      16.54       9.71
S      27.84      10.61      27.99
S      27.84       6.55      26.96
S       7.78       9.97       4.69
S      10.80      12.42       3.15
O      18.57       9.88      15.73
O      21.33       8.36      14.79
O      18.57      11.85      13.12
O      20.11      11.99      17.56
O      20.14       9.14      13.02
O      21.32      10.06      17.48
O      18.53      13.09      15.05
O      16.94      12.05      17.58
O      17.44       7.28      17.31
O      15.88      10.04      17.45
O      19.73       7.33      17.32
O      16.99       9.14      13.02
O      15.82       8.32      14.79
O      27.85      14.84      23.56
O      25.16      14.70      21.82
O      27.81      11.66      24.20
O      26.29      15.59      26.26
O      26.22      12.69      21.68
O      25.11      16.40      24.49
O      27.88      12.85      26.15
O      29.47      15.59      26.32
O      28.99      17.40      21.91
O      30.53      16.35      24.45
O      26.70      17.44      21.96
O      29.39      12.74      21.70
O      30.59      14.68      21.75
O       9.27       4.93       7.87
O      10.87       5.72      10.63
O      10.43       7.52       6.23
O       6.61       6.44       8.75
O      11.95       6.46       8.77
O       7.69       5.72      10.62
O       8.14       7.52       6.20
O       6.55       4.79       6.04
O       9.31       1.76       8.52
O       7.73       2.84       6.00
O       9.28       2.98      10.46
O      11.96       4.79       6.09
O      10.90       2.77       5.98
O      27.82       2.36      31.42
O      17.01       2.10       1.84
O      26.67      14.84       1.62
O       2.67       0.15       1.77
O      15.82       0.16       1.78
O      20.18       2.17       1.86
O      10.40      14.84       1.63
O      21.23      18.25      30.52
O      27.88       4.33      28.83
O      20.18      19.03      28.66
O      27.88       5.55      30.76
O      34.38      18.24      30.50
O      35.57      19.02      28.73
F      20.97       5.18      18.68
F      18.56      13.34      10.72
F      27.84       8.85      24.50
F      11.66       9.66       4.89
F      21.06      13.99      18.99
F      22.87      14.97      20.53
F      16.05       8.70      10.60
F      14.23       7.73       9.06
F      21.07       8.70      10.60
F      22.89       7.73       9.06
F      13.60       9.76      18.74
F      11.78      10.73      20.28
F      25.35      16.02      28.68
F      23.52      16.99      30.22
F      32.81      17.63      24.77
F      34.63      18.60      26.31
F      14.25       5.06       4.81
F      16.06       4.09       3.27
F       6.78       0.84       4.57
F      14.24      17.30       3.03
