92

Zn       5.21       7.22      14.03
Zn       8.00       7.22      14.03
H       4.46       7.44      18.32
H       4.47       6.99       9.75
H       8.75       7.00      18.32
H       8.75       7.45       9.75
H       6.30      10.57      24.64
H       6.31       3.87       3.43
H       6.91       3.87      24.64
H       6.90      10.57       3.43
H       6.84      10.61       0.96
H       6.86       3.83      27.11
H       6.37       3.83       0.96
H       6.35      10.60      27.11
C       6.61       9.81      14.03
C       6.60       4.62      14.03
C       6.61       7.22      16.64
C       6.61       7.22      11.42
C       6.48       8.47      23.03
C       6.48       5.97       5.03
C       6.73       5.97      23.03
C       6.73       8.47       5.03
C       7.80       7.12      20.24
C       7.79       7.33       7.82
C       5.42       7.32      20.24
C       5.42       7.11       7.82
C       7.80       7.10      18.85
C       7.80       7.34       9.21
C       5.41       7.34      18.85
C       5.41       7.09       9.21
C       6.61       7.22      20.98
C       6.61       7.22       7.09
C       6.61       7.22      25.21
C       6.61       7.22       2.86
C       6.50       8.44      24.51
C       6.51       5.99       3.56
C       6.71       5.99      24.51
C       6.71       8.45       3.56
C       6.40       9.64      25.20
C       6.41       4.79       2.86
C       6.81       4.79      25.20
C       6.80       9.64       2.86
C       6.61       7.22      18.15
C       6.61       7.22       9.92
C       6.64       8.46       0.73
C       6.65       5.97      27.34
C       6.57       5.97       0.73
C       6.56       8.46      27.34
C       6.61       7.22       1.43
C       6.61       7.22      26.64
C       6.76       9.65       1.47
C       6.78       4.79      26.60
C       6.45       4.79       1.47
C       6.44       9.65      26.60
C       6.61      11.25      14.03
C       6.60       3.18      14.03
C       6.61      12.48      14.03
C       6.60       1.96      14.03
C       6.61      13.82      14.03
C       6.60       0.62      14.03
C      11.24       7.22      14.03
C       1.97       7.22      14.03
C      12.60       7.22      14.03
C       0.61       7.22      14.03
N       6.61       7.22      22.40
N       6.61       7.22       5.66
N      10.08       7.22      14.03
N       3.13       7.22      14.03
N       4.10       7.42      20.92
N       4.10       7.00       7.15
N       9.11       7.01      20.92
N       9.11       7.44       7.15
O       5.46       9.25      14.02
O       7.75       5.19      14.02
O       5.46       5.19      14.05
O       7.75       9.25      14.05
O       5.47       7.23      16.07
O       7.74       7.23      11.99
O       5.47       7.20      11.99
O       7.74       7.20      16.07
O       6.35       9.49      22.36
O       6.36       4.95       5.71
O       6.86       4.95      22.36
O       6.85       9.49       5.71
O       3.22       8.06      20.32
O       3.95       6.86      22.01
O       3.23       6.36       7.75
O       3.95       7.56       6.06
O       9.99       6.38      20.32
O       9.26       7.58      22.01
O       9.98       8.07       7.75
O       9.26       6.87       6.06
