248

Zn      15.47       5.94       7.65
Zn      15.96       2.72       1.39
Zn      12.34      12.06       9.32
Zn       5.48      13.49      10.18
Zn      -3.11      18.94       6.60
Zn      -3.61      22.16      12.87
Zn       0.01      12.82       4.94
Zn       6.88      11.39       4.08
H      17.00       4.67       5.12
H       3.54      11.43      13.45
H      14.15      10.07       7.53
H       8.05      12.18       8.74
H      -4.64      20.21       9.13
H       8.82      13.45       0.80
H      -1.80      14.81       6.72
H       4.31      12.70       5.51
H       6.70      18.63       7.68
H      16.80      12.81      13.02
H      14.34      11.07      11.62
H       7.22      16.16       9.83
H       5.65       6.25       6.58
H      -4.44      12.07       1.24
H      -1.99      13.81       2.64
H       5.13       8.72       4.42
H       6.53      16.04       6.56
H      -0.50      12.96      10.20
H      16.61       9.54      12.32
H       9.58      17.36       8.84
H       5.82       8.84       7.70
H      12.86      11.92       4.06
H      -4.25      15.34       1.93
H       2.78       7.52       5.42
H       8.61      15.58       4.33
H       2.07      11.88       8.88
H      17.91       8.18       9.89
H      11.37      15.37       7.31
H       3.75       9.30       9.92
H      10.29      13.00       5.37
H      -5.56      16.70       4.37
H       0.99       9.51       6.94
H      10.32      19.78       9.24
H       7.61      15.37       0.45
H      14.84      14.02       8.80
H       4.78      14.26       7.13
H       2.04       5.10       5.01
H       4.75       9.51      13.81
H      -2.49      10.86       5.45
H       7.58      10.62       7.12
H       7.02      21.98      10.71
H      13.14       2.59       3.05
H      11.45      14.54      11.26
H       2.85      15.37      10.72
H       5.33       2.90       3.55
H      -0.78      22.29      11.21
H       0.91      10.34       3.00
H       9.50       9.51       3.53
H       7.66      21.85      13.49
H       3.71      16.46       4.05
H      11.84      17.30      11.89
H       0.52      16.57       9.58
H       4.69       3.03       0.76
H       8.65       8.42      10.21
H       0.52       7.58       2.36
H      11.83       8.31       4.68
H      10.08      19.99      13.98
H       3.65      13.77       2.54
H      -2.66      18.31      10.82
H       0.77      16.74       6.50
H       2.28       4.89       0.27
H       8.70      11.11      11.72
H      15.01       6.57       3.43
H      11.58       8.13       7.75
H       9.23      17.85       4.32
H       3.16      11.71      10.96
H      16.13       8.78       8.48
H      10.06      13.54       7.99
H       3.13       7.03       9.94
H       9.19      13.17       3.30
H      -3.77      16.10       5.77
H       2.30      11.34       6.26
H      10.62      19.96      11.78
H       5.70      14.13       1.62
H      -2.40      16.48       9.50
H       2.54      15.31       6.47
H       1.73       4.92       2.48
H       6.65      10.75      12.63
H      14.75       8.40       4.76
H       9.82       9.57       7.78
C      16.30       3.96       5.56
C       2.62      11.76      12.99
C      14.49      10.10       8.56
C       8.16      13.25       8.86
C      -3.95      20.92       8.69
C       9.74      13.12       1.27
C      -2.13      14.78       5.69
C       4.19      11.63       5.39
C       7.43      18.67       6.87
C       0.58      12.48      12.73
C      14.61      10.61      10.67
C       7.76      15.31       9.41
C       4.93       6.21       7.38
C      11.78      12.40       1.52
C      -2.26      14.27       3.58
C       4.59       9.57       4.84
C       7.79      17.68       5.97
C       1.12      12.33      11.46
C      15.67       9.75      10.40
C       8.99      15.30       8.76
C       4.56       7.20       8.28
C      11.24      12.55       2.79
C      -3.31      15.13       3.85
C       3.36       9.58       5.49
C       7.34      16.33       5.88
C       0.51      12.55      10.18
C      16.69       9.26      11.27
C       9.87      16.38       8.45
C       5.02       8.55       8.38
C      11.84      12.33       4.07
C      -4.34      15.62       2.98
C       2.49       8.50       5.80
C       7.81      15.38       5.04
C       1.06      12.29       8.98
C      17.75       8.50      10.92
C      11.01      16.31       7.73
C       4.55       9.50       9.22
C      11.29      12.59       5.27
C      -5.40      16.38       3.34
C       1.35       8.57       6.52
C       7.21      14.02       5.03
C       0.32      12.60       7.74
C      18.72       8.05      11.94
C      11.83      17.52       7.51
C       5.14      10.86       9.22
C      12.03      12.28       6.52
C      -6.37      16.83       2.32
C       0.52       7.36       6.74
C       9.63      20.28       9.93
C       6.93      15.81       1.18
C      14.10      14.48       9.44
C       4.04      14.66       7.83
C       2.72       4.60       4.33
C       5.43       9.07      13.07
C      -1.74      10.40       4.81
C       8.32      10.22       6.43
C       7.94      21.40      10.72
C      13.31       1.66       2.52
C      12.36      14.79      10.73
C       3.02      15.26       9.66
C       4.42       3.48       3.53
C      -0.95      23.22      11.73
C      -0.01      10.09       3.52
C       9.33       9.62       4.60
C       8.70      21.00      11.81
C       5.23      16.03       2.59
C      13.06      15.99      10.69
C       2.23      15.69       8.60
C       3.65       3.88       2.44
C       7.12       8.85      11.67
C      -0.70       8.89       3.56
C      10.13       9.19       5.66
C       8.50      21.21      13.22
C       4.06      15.70       3.35
C      12.78      17.24      11.34
C       0.98      16.39       8.60
C       3.85       3.67       1.04
C       8.30       9.18      10.91
C      -0.42       7.64       2.91
C      11.38       8.48       5.66
C       9.25      20.66      14.20
C       3.36      14.55       3.24
C      13.59      18.32      11.33
C       0.35      16.87       7.50
C       3.11       4.22       0.05
C       8.99      10.33      11.01
C      -1.24       6.56       2.92
C      12.00       8.01       6.75
C       6.48      11.60       1.37
C       2.16      14.28       4.05
C      13.25      19.58      12.03
C      -0.93      17.59       7.57
C       5.88      13.28      12.88
C      10.20      10.60      10.21
C      -0.89       5.30       2.23
C      13.29       7.29       6.68
N       8.16      19.81       6.61
N       1.52      12.12      13.67
N      13.90      10.82       9.52
N       7.26      14.03       9.45
N       4.20       5.07       7.65
N      10.84      12.76       0.59
N      -1.54      14.05       4.73
N       5.10      10.85       4.80
N       8.76      18.26       5.16
N       2.41      11.87      11.67
N      15.56       9.45       9.05
N       9.21      13.97       8.43
N       3.60       6.62       9.09
N       9.94      13.01       2.59
N      -3.20      15.43       5.20
N       3.15      10.91       5.82
N       8.53      20.95       9.56
N      14.36       1.50       1.65
N      13.02      13.86       9.96
N       4.14      14.64       9.16
N       3.83       3.93       4.69
N      -2.00      23.38      12.61
N      -0.67      11.02       4.30
N       8.22      10.24       5.09
N       9.77      20.29      11.27
N       5.88      15.16       1.72
N      14.15      15.76       9.87
N       2.91      15.29       7.45
N       2.59       4.59       2.99
N       6.48       9.72      12.53
N      -1.79       9.12       4.38
N       9.45       9.59       6.80
O       7.76      13.18       4.19
O       0.95      12.28       6.62
O      -4.85      22.89      11.47
O      -4.30      17.34       6.78
O       4.59      11.70      10.07
O      11.41      12.60       7.63
O      17.20       1.99       2.78
O      16.66       7.54       7.47
O       6.26      13.71       5.77
O      -0.81      13.12       7.75
O      11.24      23.88      13.15
O      11.53      18.63       8.00
O       6.10      11.17       8.49
O      13.16      11.76       6.51
O       1.12       1.00       1.11
O       0.83       6.25       6.26
O       7.16      10.86       2.19
O       1.51      13.21       3.70
O      -3.01      20.45      12.08
O      -1.31      18.14       6.46
O       5.19      14.02      12.06
O      10.85      11.67      10.55
O      15.37       4.43       2.18
O      13.67       6.74       7.80
O       5.65      12.48       1.76
O       1.81      15.03       5.01
O      12.10      19.78      12.52
O      -1.60      17.66       8.65
O       6.71      12.40      12.50
O      10.55       9.85       9.25
O       0.26       5.10       1.73
O      13.96       7.21       5.61
