46

Al       3.75       4.18       6.07
Al       0.41       4.18       6.07
H      -1.26       4.75       7.69
H       2.07       3.61       4.45
H       3.51       0.21       5.16
H      -2.70       8.15       6.98
H      -0.91       9.00       4.53
H       0.01       7.53       4.11
H      -0.82       7.62       5.65
H       1.63       0.74       6.49
H       0.81       0.83       8.03
H       1.72      -0.64       7.61
H       2.27       5.74       1.53
H      -1.46       2.62      10.60
C       2.09       3.74       8.45
C       2.07       6.60       6.13
C      -1.28       4.62       3.69
C      -1.26       1.76       6.01
C       2.06       8.09       6.07
C      -1.25       0.27       6.07
C       0.98       8.83       5.53
C      -0.17      -0.47       6.60
C       4.32      -0.40       5.56
C      -3.51       8.76       6.58
C       4.16       5.32       1.56
C      -3.35       3.04      10.57
C      -1.38       4.92       2.26
C       2.20       3.43       9.88
C      -3.61       2.90      11.97
C       4.42       5.46       0.17
C      -0.25       8.22       4.92
C       1.06       0.14       7.21
S      -0.01       4.71       1.20
S       0.82       3.65      10.94
O       3.20       3.85       7.85
O       0.94       6.00       6.16
O      -0.12       4.47       4.20
O       4.30       2.33       5.95
O      -2.39       4.50       4.29
O      -0.13       2.35       5.98
O       0.93       3.88       7.94
O      -3.48       6.03       6.19
O      -1.26       4.68       6.72
O       2.08       3.68       5.41
O       2.98       5.54       2.18
O      -2.17       2.81       9.96
