122

Zr      10.16      14.52      16.48
Zr      10.32      14.48       1.88
Zr       0.94       1.19      16.29
Zr       1.01       1.21       1.68
Zr      15.16       1.11       0.02
Zr      -3.95      14.59      18.14
H      11.04      12.42       0.00
H      15.76       0.70       2.97
H       3.14       1.21      18.14
H      15.74       0.86      15.20
H      10.76      14.14       4.47
H       1.96       1.02       4.19
H       2.07       3.64       1.74
H       3.00       2.97      15.59
H       1.41       0.94      13.69
H       9.15      14.31      13.87
H       8.24      12.69      16.45
H       9.42      11.94       2.61
H       1.66       3.75      15.92
H      10.61      13.69      13.95
H       8.19      12.88       2.30
H       0.89       2.18       4.32
H       0.52      15.71       7.82
H       4.82      15.91       7.81
H       4.82      15.97      10.32
H       0.52      15.77      10.32
H      -3.53       9.88       7.80
H      14.83       5.72       7.88
H      14.82       5.77      10.39
H      -3.53       9.93      10.30
C       7.24      16.00      16.04
C      12.73      12.25       2.31
C       7.24      15.84       2.10
C      -4.52      12.45      15.82
C      -2.12      15.91      15.82
C      15.88       3.43       2.15
C      -2.13      15.67       2.31
C      15.85       3.61      16.08
C      13.96       9.05      13.90
C      14.28       7.90      11.97
C      14.63       6.90      13.98
C      13.95       8.87       4.25
C      14.29       7.79       6.21
C      14.65       6.73       4.24
C       1.48      15.91      13.89
C       3.73      15.99      13.94
C       2.65      15.91      11.94
C       1.47      15.67       4.25
C       3.72      15.79       4.19
C       2.65      15.77       6.19
C       1.46      15.77       8.38
C       2.67      15.81       7.66
C       3.88      15.88       8.37
C       3.88      15.92       9.76
C       2.67      15.88      10.47
C       1.46      15.80       9.76
C      13.97       8.98       8.37
C      14.29       7.80       7.69
C      14.59       6.63       8.42
C      14.59       6.66       9.81
C      14.28       7.85      10.49
C      13.97       9.01       9.76
C      15.05       5.57       3.51
C      15.42       4.60       2.88
C      13.55      10.05       3.55
C      13.19      11.06       2.99
C      15.02       5.76      14.74
C      15.39       4.79      15.38
C      -4.05      11.28      15.11
C      -3.69      10.26      14.56
C      -0.87      15.61       3.03
C       0.21      15.61       3.58
C       4.93      15.82       3.44
C       5.97      15.84       2.80
C      -0.85      15.89      15.13
C       0.23      15.89      14.57
C       4.95      16.02      14.68
C       5.98      16.03      15.32
N      13.94       9.06      12.55
N      14.63       6.78      12.64
N      14.30       8.01      14.68
N      13.93       8.92       5.59
N      14.66       6.65       5.58
N      14.30       7.80       3.50
N       2.59      15.96      14.65
N       3.83      15.96      12.60
N       1.45      15.88      12.55
N       2.57      15.71       3.48
N       3.82      15.83       5.53
N       1.44      15.69       5.59
O       8.02      15.04      15.76
O      13.42       0.74      16.88
O      11.59      12.69       2.66
O      -3.76      12.73       1.42
O       7.98      14.82       2.27
O      13.49       0.68       1.41
O      11.67      12.98      15.42
O      -3.82      12.81      16.82
O       9.20      12.76      16.57
O      10.08      14.50      14.12
O       9.02      12.52       1.94
O      10.21      14.67       3.87
O       9.51      15.29       0.05
O      11.18      13.38       0.06
O       3.06       0.64      15.49
O      -2.30      15.01      16.70
O      -0.21       3.03       2.43
O      15.07       2.92       1.32
O       2.99       0.30       2.73
O      -2.24      14.91       1.30
O      -0.21       3.28      15.90
O      14.98       2.99      16.78
O       2.31       3.10      16.26
O       0.72       1.25      14.29
O       2.34       2.71       1.61
O       1.01       1.26       4.04
O       2.29       0.75      18.09
O      -0.09       1.66      18.12
O      -5.15      15.37      16.67
O      16.14       0.50       2.10
O      16.07       0.56      16.07
O      -5.10      15.28       1.48
