79

Al       5.20      17.59      10.20
H       3.29      15.50      13.87
H       3.35      15.44      16.35
H       4.65      15.73      18.17
H       3.54       4.02       0.25
H       3.28      21.87       5.20
H       2.38      23.72       4.58
H       1.18       2.36       3.36
H       2.35       3.72       2.14
H       3.67      21.77      10.13
H       3.75      23.94       8.96
H       4.83      25.36       7.72
H       3.63       4.00       6.50
H       3.07      11.12       8.95
H       1.80       9.80       7.75
H       1.64       7.68       6.53
H       2.66       5.84       5.87
H       3.40      15.45       6.55
H       3.22      13.35       5.25
H       4.17      11.46       4.55
H       4.01       9.34       3.34
H       3.58      19.75      16.41
H       2.43      19.42      18.31
H       1.32       7.71       0.38
H       2.69       8.00       2.15
C       3.24      17.61      12.25
C       3.23      15.80       9.18
C       3.24      19.35       9.14
C       3.33      16.43      14.44
C       3.38      16.40      15.83
C       4.16      16.53      18.74
C       4.23      16.52      20.12
C       3.20      20.67       6.96
C       3.31      21.88       6.28
C       2.98      24.53       4.99
C       3.06      25.73       4.30
C       3.31      17.64      13.75
C       3.46      17.59      16.57
C       3.53      17.58      18.05
C       2.44       5.86       0.51
C       2.51       5.86       1.98
C       2.45       4.65       2.69
C       3.56      21.81       9.05
C       3.62      23.03       8.38
C       4.29      25.46       6.78
C       4.37      26.67       6.09
C       3.14      13.25       9.12
C       3.10      12.06       8.40
C       2.32       9.70       6.80
C       2.23       8.50       6.11
C       3.33      20.61       8.36
C       3.51      23.08       6.98
C       3.60      24.36       6.25
C       2.42       3.35       4.83
C       2.50       4.63       4.10
C       2.63       5.84       4.78
C       3.31      14.49       7.06
C       3.22      13.31       6.34
C       3.59      10.64       4.98
C       3.49       9.44       4.29
C       3.38      18.83      14.48
C       3.47      18.81      15.87
C       2.97      18.62      18.81
C       3.04      18.61      20.20
C       3.24      14.49       8.46
C       3.11      12.07       7.00
C       3.00      10.80       6.25
C       2.81       8.34       4.84
C       2.70       7.07       4.10
C       2.64       7.06       2.70
Cl       3.16      13.15      10.85
Cl       3.44      20.37      13.68
Cl       2.98      19.24       6.01
O       2.28      18.55       8.91
O       2.28      18.21      11.69
O       2.28      16.00      10.01
O       4.14      19.17      10.03
O       4.15      16.63       8.90
O       4.14      16.94      11.65
