72

Zn       5.94       7.65       8.81
Zn       5.94      10.41       8.67
H       7.42      12.57      10.03
H       7.50      15.06      10.01
H       4.40      14.97       6.98
H       4.45      12.47       7.14
H       7.35       3.09      10.62
H       4.54       2.98       7.33
H       4.64       5.47       7.29
H       7.26       5.60      10.49
H       4.51       0.88       7.65
H       7.37      17.17       9.83
H       5.91      11.36      12.83
H       5.92      11.52      15.30
H       6.05       7.21      15.55
H       6.09       7.08      13.06
H       5.95      10.82       1.93
H       5.83       6.51       2.17
H       5.80       6.66       4.64
H       5.97      10.93       4.42
H       5.91       6.55       0.07
H       5.99      11.47      17.41
C       6.01       9.14      11.30
C       8.54       9.06       8.68
C       5.88       8.88       6.17
C       3.34       9.05       8.79
C       6.77      13.16       9.38
C       6.80      14.54       9.35
C       5.95      15.25       8.48
C       5.09      14.48       7.67
C       5.11      13.10       7.75
C       5.91      16.70       8.38
C       5.98       1.36       9.10
C       6.72       3.58       9.88
C       5.94       2.81       8.99
C       5.17       3.51       8.05
C       5.21       4.89       8.02
C       6.69       4.97       9.80
C       6.01       9.21      12.79
C       5.95      10.46      13.44
C       5.96      10.54      14.83
C       5.99       9.37      15.62
C       6.03       8.12      14.96
C       6.05       8.05      13.57
C       5.98       9.39      17.08
C       5.91       8.64       0.40
C       5.93       9.90       2.52
C       5.89       8.66       1.85
C       5.85       7.49       2.64
C       5.83       7.56       4.03
C       5.88       8.80       4.68
C       5.93       9.97       3.91
C      10.07       9.05       8.69
C       1.81       9.04       8.79
C      10.81      10.24       8.62
C       1.08       7.84       8.72
C       1.07      10.25       8.81
C      10.80       7.84       8.80
Br       9.99      11.89       8.14
Br       1.95       6.17       8.46
Br       1.92      11.90       9.22
Br       9.94       6.18       9.13
N       5.94      12.45       8.59
N       5.95       5.61       8.89
O       6.37       8.04      10.77
O       5.64      10.19      10.67
O       7.97      10.10       9.13
O       7.95       8.03       8.25
O       6.24       9.99       6.69
O       5.51       7.84       6.82
O       3.93       8.07       9.33
O       3.91      10.05       8.24
