89

Al       4.89       4.44       7.82
H       3.59      24.09      12.49
H       3.22      23.42      10.89
H       6.00      24.38      11.74
H       5.09       8.01      13.08
H       5.50       9.71      13.32
H       2.68       8.47      13.76
H       3.49       9.44       6.91
H       3.71       7.68       7.05
H       5.02       8.76       7.48
H       4.93      10.74       8.31
H       4.69      11.73       9.74
H       3.46      11.71       8.48
H       3.78      15.13       8.52
H       5.19      15.02       9.59
H       5.31      15.93       8.08
H       5.34      18.20       7.08
H       3.77      18.99       6.96
H       3.86      17.22       7.01
H       4.06      18.23      13.86
H       2.62      17.31      13.39
H       2.59      19.08      13.33
H       2.74      21.07      11.90
H       4.34      21.47      11.27
H       4.19      20.57      12.78
H       0.64       1.69       2.05
H       0.24       2.37       0.47
H       3.05       1.36       1.30
H       4.45      19.22       4.01
H       4.82      20.25       5.40
H       2.03      20.01       4.14
H       0.87       7.24       2.18
H       1.04       6.47       0.60
H       2.32       7.53       1.20
H       2.28       7.74       4.00
H       2.08       6.72       5.44
H       4.74       6.90       4.30
C       2.90       6.25       8.82
C       2.87       4.46       5.75
C       4.04      20.66       8.87
C       3.51       9.90       9.68
C       3.01       9.93      11.01
C       3.25       3.33       2.16
C       2.73       4.47       1.48
C       3.93      16.96      11.02
C       3.68      18.17      11.71
C       2.25       5.60       2.19
C       2.33       5.61       3.59
C       2.83       4.48       4.25
C       3.28       3.34       3.57
C       3.81      19.39      11.02
C       4.02      19.37       9.62
C       4.19      18.16       8.92
C       4.22      16.95       9.63
C       2.49       8.76      11.63
C       2.47       7.56      10.90
C       2.93       7.55       9.57
C       3.44       8.70       8.95
C       3.28      13.47      11.77
C       3.79      12.17      13.75
C       3.12      11.18      11.79
C       3.88      15.68      11.76
C       4.38      14.52      13.67
C       2.63       4.45       0.00
C       3.08      24.29      11.53
C       1.91       8.75      13.02
C       3.93       8.64       7.52
C       4.18      11.08       9.02
C       4.64      15.69       8.92
C       4.30      18.14       7.42
C       3.22      18.20      13.15
C       3.76      20.69      11.78
C       3.82       2.13       1.45
C       4.95      20.14       4.32
C       1.59       6.77       1.50
C       1.84       6.80       4.38
N       3.81      13.39      13.06
N       3.51      11.06      13.07
N       2.86      12.35      11.17
N       3.23      14.66      11.17
N       4.49      15.65      12.96
N       4.04      12.17      15.06
N       4.76      14.45      14.95
O       4.98      20.86       8.03
O       3.84       5.42       9.07
O       3.83       5.06       6.33
O       3.10      21.50       9.10
O       1.95       3.82       6.36
O       1.95       6.04       8.00
