174

Cu      21.48      21.51      25.06
Cu      23.77      21.54      22.87
Cu      21.52      23.80      22.87
Cu      21.44       5.99       4.27
Cu      23.73       5.97       6.47
Cu      21.47       3.71       6.47
Cu       6.01      21.48       4.27
Cu       3.72      21.51       6.46
Cu       5.99      23.76       6.47
Cu       5.99       6.03      25.05
Cu       3.70       5.99      22.86
Cu       5.96       3.74      22.86
H      22.52      19.22      26.98
H      25.75      19.36      24.09
H      19.35      25.79      24.09
H      19.19      22.56      26.98
H      25.57      22.52      20.44
H      22.52      25.60      20.45
H      22.49       8.27       2.35
H      25.72       8.13       5.24
H      19.29       1.73       5.26
H      19.15       4.94       2.36
H      25.53       4.98       8.89
H      22.46       1.92       8.89
H       4.96      19.19       2.35
H       1.73      19.34       5.24
H       8.17      25.73       5.26
H       8.30      22.52       2.36
H       1.93      22.51       8.89
H       5.01      25.55       8.89
H       4.95       8.31      26.97
H       1.71       8.16      24.08
H       8.14       1.76      24.08
H       8.29       4.99      26.97
H       1.91       4.99      20.44
H       4.98       1.94      20.44
H       1.55       1.54      15.57
H      25.94      25.96      15.58
H       1.59      25.96      13.77
H      25.90       1.54      13.77
H       0.02       0.04      19.31
H      27.46      27.46      10.03
H       1.40      14.63       1.67
H      26.09      14.68      27.67
H      26.08      12.82       1.67
H       1.40      12.86      27.67
H       0.03      18.36       0.00
H      27.42       9.13      29.32
H      14.61       1.36       1.68
H      14.67      26.14      27.67
H      12.82       1.41      27.66
H      12.85      26.10       1.68
H      18.35       0.00       0.01
H       9.12      27.50      29.33
C      23.18      19.41      26.14
C      24.46      18.89      25.88
C      24.84      19.48      24.66
C      19.47      24.87      24.66
C      18.87      24.50      25.88
C      19.39      23.22      26.14
C      24.70      23.15      20.62
C      24.35      24.37      20.00
C      23.14      24.73      20.63
C      23.15       8.08       3.19
C      24.43       8.60       3.45
C      24.80       8.01       4.67
C      19.42       2.64       4.69
C      18.82       3.01       3.47
C      19.34       4.29       3.21
C      24.66       4.35       8.72
C      24.30       3.14       9.34
C      23.09       2.78       8.72
C       4.30      19.38       3.19
C       3.02      18.86       3.45
C       2.65      19.46       4.67
C       8.05      24.82       4.69
C       8.64      24.46       3.46
C       8.11      23.17       3.20
C       2.80      23.13       8.71
C       3.17      24.34       9.34
C       4.38      24.69       8.71
C       4.29       8.12      26.13
C       3.00       8.64      25.87
C       2.63       8.04      24.65
C       8.02       2.68      24.65
C       8.61       3.05      25.87
C       8.09       4.33      26.13
C       2.77       4.37      20.61
C       3.14       3.16      19.99
C       4.35       2.80      20.62
C       0.88       0.88      16.11
C       0.01       0.03      15.42
C      26.62      26.63      16.12
C      26.61      26.62      17.53
C       0.02       0.03      18.22
C       0.89       0.89      17.52
C       0.01       0.02      13.92
C       0.92      26.62      13.22
C       0.92      26.61      11.81
C      27.47      27.47      11.12
C      26.56       0.88      11.81
C      26.57       0.88      13.22
C       0.79      15.17       0.94
C       0.03      14.47       0.01
C      26.69      15.22      28.40
C      26.68      16.63      28.40
C       0.03      17.27       0.00
C       0.81      16.58       0.95
C       0.03      12.98       0.00
C      26.68      12.28       0.94
C      26.65      10.87       0.94
C      27.43      10.22      29.33
C       0.80      10.91      28.39
C       0.79      12.32      28.40
C      15.16       0.76       0.95
C      14.46       0.00       0.01
C      15.21      26.74      28.40
C      16.62      26.73      28.40
C      17.26       0.00       0.01
C      16.57       0.78       0.96
C      12.97       0.00       0.01
C      12.27       0.81      28.40
C      10.86       0.82      28.39
C      10.21      27.50      29.33
C      10.90      26.68       0.95
C      12.31      26.69       0.95
C      25.22      18.04      26.71
C      25.89      17.36      27.47
C      25.19       9.45       2.62
C      25.86      10.14       1.86
C       2.26      18.00       2.63
C       1.60      17.31       1.88
C       2.24       9.49      26.70
C       1.58      10.18      27.45
C      18.03      25.27      26.71
C      17.35      25.94      27.47
C       9.46       2.28      26.70
C      10.14       1.61      27.46
C      17.97       2.24       2.64
C      17.29       1.57       1.89
C       9.49      25.22       2.64
C      10.17      25.89       1.88
C      25.08      25.10      19.05
C      25.76      25.77      18.28
C       2.44      25.07      10.29
C       1.77      25.75      11.06
C       2.41       2.42      19.04
C       1.74       1.75      18.27
C      25.03       2.41      10.30
C      25.70       1.73      11.06
N      23.85      20.30      24.23
N      22.83      20.25      25.15
N      20.23      22.86      25.15
N      20.28      23.88      24.23
N      22.82      23.81      21.55
N      23.78      22.83      21.55
N      23.82       7.20       5.10
N      22.79       7.24       4.18
N      20.18       4.65       4.19
N      20.23       3.63       5.11
N      22.77       3.70       7.79
N      23.74       4.67       7.79
N       3.63      20.28       5.09
N       4.65      20.23       4.18
N       7.27      22.82       4.19
N       7.23      23.84       5.11
N       4.69      23.77       7.78
N       3.71      22.81       7.78
N       3.61       7.23      24.22
N       4.64       7.28      25.14
N       7.25       4.68      25.14
N       7.21       3.66      24.22
N       4.67       3.73      21.55
N       3.69       4.69      21.54
