50

Zn       7.45       5.67       6.94
Zn       4.70       5.73       7.14
H       8.77       5.84      13.69
H       9.63       4.67       8.78
H       9.74       7.90       4.72
H       2.59       6.38       3.96
H       2.56       7.95       4.82
H       3.45       5.49       0.40
H       4.12      10.00       7.69
H       3.92       1.41       7.74
H       8.71       1.45       5.39
H       9.24       1.38       7.09
H       8.89      10.02       5.30
H       9.45       9.94       7.00
H       2.41       4.76       8.91
C       6.14       8.31       7.02
C       5.86       5.63       2.98
C       7.32      10.54       6.77
C       6.18       9.80       7.07
C       5.03      10.55       7.43
C       4.82       0.86       7.46
C       5.98       1.60       7.14
C       7.11       0.85       6.80
C       8.55       0.95       6.36
C       8.76      10.45       6.31
C       1.93       6.22       6.06
C       5.97       5.64       4.42
C       1.87       5.17       8.05
C      10.22       5.11       7.97
C      10.29       6.15       5.98
C      10.26       6.93       4.66
C       2.09       6.96       4.75
C       5.99       3.09       7.13
C       6.19       5.73       9.68
C       6.32       5.72      11.11
C       6.65       5.75      13.72
C       5.57       5.58       0.37
C       5.73       5.61       1.76
C       6.48       5.73      12.32
N       2.63       5.75       7.09
N       9.53       5.61       6.92
O       7.27       7.71       6.92
O       5.00       7.74       7.09
O       7.15       5.66       4.91
O       4.87       5.65       5.06
O       7.13       3.65       7.01
O       4.87       3.69       7.23
O       7.28       5.70       9.02
O       5.00       5.75       9.20
F       9.79       6.24       3.55
