66

Al       5.90       8.88       8.68
Al       2.58       8.83       8.68
H       7.58      10.34       7.77
H       4.29       7.32       9.47
H       2.81       4.85       7.80
H       2.94       2.35       7.80
H       5.70       2.19       9.64
H       6.02      15.54       9.70
H       8.75      15.34       7.92
H       8.89      12.84       7.95
H       6.26       9.01       4.62
H       6.31       8.91       2.12
H       2.21       7.56       2.15
H       9.48       8.49      15.33
H       5.56       9.91      12.65
H       5.41       9.91      15.14
H       8.46       7.83       5.72
H       7.74       7.34       4.22
H       3.38       8.55      11.75
H       4.07       8.27      13.34
C       4.27       8.55       6.26
C       4.21      11.28       8.74
C       7.53       9.10      11.10
C       7.57       6.43       8.70
C       7.53       4.94       8.74
C       2.00       4.25       8.21
C       2.08       2.87       8.20
C       7.65       2.12       8.73
C       6.52       2.78       9.23
C       6.47       4.17       9.27
C       5.20      14.94       9.31
C       4.06      15.58       8.81
C       9.63      14.83       8.31
C       3.07      13.45       8.33
C       4.20      12.77       8.83
C       5.26      13.55       9.34
C       4.23       8.36       4.80
C       5.39       8.67       4.06
C       5.42       8.62       2.68
C       4.25       8.23       1.98
C       3.10       7.87       2.70
C       3.06       7.92       4.11
C       4.23       8.28       0.56
C       7.38       9.07      16.80
C       7.44       9.16      15.39
C       8.62       8.81      14.73
C       8.73       8.82      13.33
C       7.57       9.19      12.57
C       6.41       9.59      13.25
C       6.32       9.59      14.63
N       7.62       0.71       8.79
N       4.10      16.99       8.82
N       1.93       7.51       4.76
N       3.26       8.44      12.76
Cl       5.07       4.85      10.03
Cl       6.65      12.84      10.09
O       5.41       8.59       6.84
O       3.08      10.70       8.81
O       8.64       8.89      10.49
O       6.47       7.05       8.78
O       6.40       9.20      10.51
O       8.71       6.97       8.57
O       3.14       8.71       6.86
O       5.33      10.70       8.58
O       7.57       9.42       8.05
O       4.25       8.28       9.30
