54

Al       5.86       6.86       8.25
Al       9.19       6.90       8.26
H       4.20       8.31       7.25
H       7.55       5.37       9.10
H       8.86       8.29      12.01
H       8.69       8.77      14.48
H       6.11       7.55      14.95
H       5.72       5.11       1.73
H       3.15       6.41       1.80
H       2.92       6.88       4.26
H       5.41      10.89       8.73
H       6.26       2.86       7.76
H       6.66       6.84      11.41
H       7.35       6.87      13.03
H       5.09       5.82       5.24
H       4.44       5.21       3.74
C       7.51       9.30       8.21
C       7.55       6.52       5.84
C       4.18       4.46       8.29
C       4.18       7.27      10.66
C       4.21       7.60      12.09
C       9.70       8.11      12.68
C       9.60       8.37      14.03
C       4.06       8.14      14.84
C       5.26       7.69      14.29
C       5.37       7.40      12.91
C       6.57       5.48       2.31
C       7.78       5.69       1.65
C       2.23       6.20       2.34
C       8.77       6.46       3.69
C       7.57       6.22       4.40
C       6.43       5.72       3.69
C       4.17       2.96       8.28
C       7.50      10.80       8.21
C       3.03       2.18       8.55
C       8.63      11.58       7.94
C       6.31      11.47       8.52
C       5.36       2.29       7.97
N       4.08       8.35      16.24
N       7.76       5.42       0.26
N       6.54       6.92      12.42
N       5.24       5.44       4.31
O       6.38       8.72       8.26
O       8.67       6.64       6.43
O       3.07       5.06       8.35
O       5.30       7.03      10.07
O       5.32       5.01       8.23
O       3.04       7.23      10.08
O       8.64       8.72       8.18
O       6.41       6.65       6.42
O       4.20       7.41       7.62
O       7.53       6.32       8.89
F       1.85       2.75       8.88
F       9.82      11.01       7.61
