187

Al      11.64       6.61      13.69
Al       8.45       6.44      13.82
Al      10.01       3.86      13.82
Al       2.24       0.57      27.22
Al       3.77       3.41      27.22
Al       5.45       0.97      27.20
H       4.60       5.13       6.25
H       4.55       3.01       8.14
H       8.27       2.08      21.73
H       7.73       1.86      24.11
H       6.65       6.09      19.81
H       6.01       5.76      21.63
H       8.08       2.02      19.76
H       8.44       2.19      17.33
H      12.30       1.99      16.99
H       3.23       4.21      23.38
H       7.07       5.98       7.29
H      13.33       5.74       7.54
H      13.06       1.70      19.36
H      11.90       2.40      21.64
H      12.60       1.91      23.99
H      12.62       6.25      17.46
H      12.01       8.77      16.81
H       5.35       0.38      20.82
H       5.60       0.71      23.24
H       9.00       8.41      21.54
H       8.41       4.28       5.42
H       9.11       8.87      23.98
H      15.54       4.54       6.25
H       7.75       8.95      17.23
H       8.37       2.21       7.34
H       5.91       1.33       6.28
H      13.63       1.06       6.05
H       2.32       2.31       8.00
H      11.69       4.90       4.48
H       9.86       6.03       5.42
H      11.21       6.35       6.54
H      10.03       5.08       6.92
H       5.33       6.65      23.44
H      11.43       8.45       5.81
H       6.11       7.58      25.35
H       6.73       6.01      25.91
H       5.01       6.40      26.12
H      12.96       7.09      19.45
H      12.64       7.51      21.60
H      13.27       5.93      22.12
H      11.61       6.05      21.46
H      13.25       8.98      18.80
H      14.21      11.10      19.26
H      13.30      11.09      17.71
H       9.14       7.43       7.18
H       6.26       0.48      19.16
H      10.46       2.16       6.48
H       9.96       0.62       8.23
H      11.42       1.15       9.10
H      11.57       0.16       7.61
H       7.50       9.22       5.70
H       7.84      11.15       7.78
H       3.78       0.84       6.42
H       6.94       6.21      17.37
H      13.63       7.53      12.85
H      19.44      11.07      26.55
C       9.69       7.99      11.86
C       7.08       3.91       9.50
C      14.46       2.79       7.45
C       7.84       4.37      11.99
C      13.54       2.09       6.40
C      13.82       3.29       2.82
C      12.57       3.74      10.68
C      14.61       4.03       6.51
C      13.67       3.34       5.45
C      13.37       4.71       7.19
C      13.21       3.46       8.15
C       7.34       4.06      10.68
C      12.42       4.01       6.14
C      12.26       2.76       7.07
C      13.80       3.31       4.04
C      12.00       4.14      11.93
C      12.92       3.57       9.52
C      10.80      10.11       7.37
C      10.62       9.03       6.26
C       9.92      10.39       2.83
C       9.54       8.71      10.63
C       9.88      11.11       6.59
C       6.16       2.37       6.51
C       9.72      10.03       5.43
C       8.63      10.54       7.32
C       9.53       9.54       8.14
C       8.44       9.47       6.19
C       9.77       8.08      15.58
C       9.36       8.48       6.98
C       9.84      10.25       4.04
C       9.49       9.16       9.50
C       7.69       4.20      17.19
C       7.17       5.29      17.91
C       6.17       3.54       5.44
C       7.01       5.21      19.28
C       7.32       4.03      19.99
C       7.83       2.95      19.25
C       8.02       3.03      17.88
C       7.67       2.85      22.21
C       8.01       4.36      15.75
C       7.39       2.73      23.56
C       6.21       4.87      23.56
C       6.42       4.90      22.16
C       7.13       3.93      21.46
C       7.53       2.85       7.07
C       6.62       3.69      24.26
C      12.45       4.15      17.09
C      12.53       2.85      17.62
C      12.93       2.70      18.94
C      13.20       3.80      19.78
C      13.03       5.12      19.26
C      11.99       4.42      15.71
C      12.72       5.25      17.90
C      14.89       4.00      21.66
C      15.24       3.81      23.00
C       6.79       3.78       8.12
C      13.22       2.51      23.33
C      12.85       2.77      22.02
C      13.66       3.54      21.16
C      14.41       3.06      23.84
C       9.87       8.75      16.90
C      11.15       8.99      17.43
C      11.31       9.49      18.72
C       5.40       3.30       7.52
C      10.18       9.74      19.54
C       8.91       9.58      18.94
C       7.56       4.02       6.04
C       8.74       9.08      17.65
C      11.14      11.05      21.50
C      11.27      11.25      22.87
C       9.70       9.46      23.28
C       9.62       9.23      21.91
C      10.32      10.03      20.99
C      10.54      10.47      23.77
C      14.11       3.02       1.44
C       5.43       4.47       6.49
C       5.13       3.01       1.56
C       6.81       4.95       7.05
C       9.81      10.78       1.45
C      14.84       2.80      25.23
C       6.05       3.26      25.55
C      10.55      10.83      25.21
C       5.59       3.30       2.88
C      10.59       5.56       6.10
C       5.87       6.51      25.45
C      12.65       6.43      21.37
C      13.21      10.99      18.80
C      10.99       0.97       8.10
C       5.86       3.42       4.07
N      11.36       4.56       5.38
N       5.62       5.96      24.12
N      13.17       6.28      20.01
N      12.64       9.69      19.21
N      10.99       2.22       7.34
Cl      12.31      10.50       8.15
Cl      16.02       4.81      20.63
Cl       7.46      10.03      19.80
O      12.32       5.28      12.38
O       5.56       1.94       1.01
O      10.90      10.97       0.77
O      10.85       7.57      12.13
O       9.45      10.80      25.83
O      14.49       1.71      25.78
O      15.58       3.71      25.77
O       5.11       3.97      26.06
O       6.42       2.14      26.06
O      11.69      11.20      25.71
O       3.83       1.65      27.22
O       7.58       5.41      15.15
O       8.62       7.79      12.56
O       7.50       5.50      12.49
O       8.63       3.52      12.54
O      11.16       3.32      12.47
O      12.22       5.57      15.23
O      10.85       7.87      14.96
O       8.60       7.70      15.19
O       8.78       3.49      15.21
O      11.32       3.49      15.10
O      10.01       5.62      13.77
O       8.63      10.96       1.03
O      13.82       1.88       1.00
O      14.70       3.96       0.78
O       4.28       3.82       1.04
O      13.11       7.57      13.66
O       7.12      10.91      27.26
