62

Al      -2.76       4.81       8.76
Al       0.52       4.79       8.68
H      -1.07       6.38       9.42
H       2.22       4.28       7.08
H       3.42       3.88       4.80
H       3.19       3.95       2.33
H       0.72       5.76       4.50
H       0.16       3.46      12.65
H      -2.53       5.33      12.78
H      -2.50       5.09      15.27
H       0.28       7.70       6.80
H       3.19       2.00       7.39
H       0.63       0.72       9.70
H      -2.57       8.85       9.60
H      -0.23       8.82       3.98
H       0.87       2.20       7.03
C       2.22       7.23       8.56
C       2.08       4.57      11.10
C      -1.21       2.38       8.78
C      -1.10       4.84       6.28
C      -1.21       4.83       4.80
C       4.21       4.32       4.19
C       4.08       4.35       2.81
C      -1.48       4.93       2.01
C      -0.32       5.43       2.64
C      -0.17       5.37       4.02
C       4.92       5.01       0.61
C       2.23       3.95      16.76
C       2.16       4.10      15.37
C       1.06       3.64      14.61
C       1.02       3.81      13.23
C       2.10       4.41      12.57
C      -3.36       4.87      13.30
C      -3.34       4.73      14.68
C       2.18       8.72       8.48
C       1.13       9.42       7.81
C      -3.38       9.41       9.13
C       0.22       8.78       6.93
C      -0.72       9.50       6.22
C      -1.24       0.90       8.66
C      -0.18       0.18       9.20
C       4.29       0.22       7.95
C       3.26       0.92       7.27
C       2.39       0.28       6.42
C      -1.64       8.78       5.27
C       1.47       1.06       5.53
Cl       0.93       6.16       1.70
Cl      -0.26       2.85      15.40
O      -3.22       6.67       8.46
O       0.99       4.36      10.48
O      -0.10       2.95       8.52
O      -2.17       4.59       6.93
O      -2.28       2.98       9.11
O       0.03       5.09       6.82
O       1.11       6.63       8.78
O       3.17       4.93      10.53
O      -1.10       5.42       9.29
O       2.17       4.23       8.06
O      -1.10       8.40       4.09
O      -2.79       8.47       5.56
O       0.85       2.15       6.04
O       1.32       0.76       4.36
