123

Al       4.08      17.54      10.13
Al       4.08      29.25      16.88
Al       4.08       5.85       3.39
H       0.87       2.16       1.59
H       0.82      23.09       1.56
H       3.10      23.02       5.21
H       3.10      22.25       1.10
H       0.87      17.84       0.71
H       0.82      19.04       2.86
H       3.10      19.07       3.82
H       0.88      20.94       7.83
H       0.82      22.19       5.72
H       3.21      29.55      12.84
H       3.30       7.34      10.68
H       1.02      10.58      12.38
H       1.02       7.38       9.72
H       3.21       9.20       5.66
H       3.30      10.47       7.77
H       1.02      11.29       8.28
H       3.21      13.89      11.88
H       3.30      11.43      11.94
H       3.20      25.58      18.63
H       3.27      23.12      18.68
H       0.99      23.00      15.02
H       0.99      22.28      19.16
H       3.20      17.87      19.59
H       3.27      19.05      17.44
H       0.99      19.06      16.47
H       3.20      20.89      12.43
H       3.27      22.16      14.53
C       2.01      18.52      11.93
C       2.04      18.57       8.36
C       2.01      15.50      10.08
C       2.04      30.26      18.65
C       2.01      27.20      16.82
C       2.01      30.31      15.13
C       2.04       3.80       3.37
C       2.01       6.92       1.64
C       2.01       6.83       5.18
C       1.38       1.60       2.38
C       1.34      23.61       2.36
C       1.97      22.86       3.38
C       2.62      23.56       4.41
C       2.62      24.95       4.43
C       2.03       2.30       3.40
C       2.62      21.28       1.03
C       2.62      32.30      20.07
C       2.03      31.04      19.94
C       1.38      18.80       0.80
C       1.34      19.49       2.01
C       1.97      20.73       2.15
C       2.62      19.49       4.69
C       2.61      18.78       5.89
C       2.03      19.29       7.05
C       1.38      20.54       6.95
C       1.34      21.24       5.76
C       1.97      20.73       4.61
C       2.71      30.51      12.73
C       2.78       7.80      11.52
C       2.16       9.05      11.36
C       1.50       9.61      12.47
C       1.48       8.94      13.69
C       2.06      31.07      13.84
C       1.50       7.79       8.84
C       1.48       7.07       7.65
C       2.06       7.57       6.48
C       2.71       8.81       6.55
C       2.78       9.52       7.74
C       2.16       9.03       8.91
C       1.50      11.84       9.08
C       1.48      13.23       9.05
C       2.06      14.00      10.07
C       2.71      13.32      11.10
C       2.78      11.93      11.12
C       2.16      11.17      10.12
C       2.70      25.01      17.84
C       2.75      23.62      17.87
C       2.12      22.86      16.86
C       1.47      23.55      15.82
C       1.47      24.94      15.79
C       2.05      25.70      16.81
C       1.47      21.31      19.23
C       1.47       8.95       0.20
C       2.05       7.68       0.34
C       2.70      18.83      19.49
C       2.75      19.50      18.28
C       2.12      20.75      18.12
C       1.47      19.48      15.59
C       1.47      18.75      14.40
C       2.05      19.25      13.23
C       2.70      20.49      13.31
C       2.75      21.21      14.50
C       2.12      20.72      15.66
Br       3.40      25.81       5.93
Br       3.40      33.17      18.58
Br       3.40      17.05       5.88
Br       0.68       9.83      15.16
Br       0.68       5.35       7.68
Br       0.68      14.07       7.54
Br       0.68      25.79      14.28
Br       0.68       9.83       1.68
Br       0.68      17.02      14.42
N       1.94      21.44       3.38
N       2.20       9.75      10.13
N       2.15      21.44      16.88
O       2.97      16.11       9.52
O       2.97      17.73      11.68
O       3.01      18.81       9.15
O       1.03      16.04      10.67
O       1.06      17.80       8.60
O       1.03      18.76      11.16
O       1.03      29.52      15.31
O       1.06      30.44      17.87
O       1.03      27.74      17.42
O       2.97      30.49      15.94
O       2.97      27.81      16.27
O       3.01      29.45      18.47
O       1.03       7.07       4.41
O       1.06       4.39       3.93
O       1.03       6.13       1.81
O       2.97       6.04       4.93
O       2.97       7.10       2.45
O       3.01       4.37       2.77
