68

Zn       6.07       8.14       9.70
Zn       8.87       8.02       9.70
H       6.17       6.36      16.48
H       8.77       9.81       2.92
H       6.17       6.36       2.92
H       8.77       9.80      16.48
H       5.44      14.89      10.16
H       9.50       1.27       9.24
H       5.29       1.22      10.16
H       9.65      14.94       9.24
C       7.49      10.68       9.70
C       7.45       5.49       9.70
C       7.38       2.83       9.70
C       7.56      13.34       9.70
C       7.55      12.12       9.70
C       7.38       4.04       9.70
C       0.76       8.09      10.94
C      14.18       8.08       8.46
C       0.76       8.07       8.46
C      14.18       8.09      10.94
C       1.44       8.08       9.70
C      13.49       8.09       9.70
C       2.86       8.08       9.70
C      12.08       8.09       9.70
C       7.47       8.08      12.31
C       7.47       8.08       7.10
C       6.74       7.12      14.55
C       8.20       9.04       4.86
C       6.74       7.12       4.86
C       8.19       9.04      14.55
C       6.73       7.11      15.94
C       8.20       9.05       3.47
C       6.74       7.11       3.47
C       8.20       9.05      15.94
C       7.47       8.08      16.64
C       7.47       8.08       2.76
C       7.47       8.08      13.81
C       7.47       8.08       5.59
C       7.47       8.08       1.29
C       7.47       8.08      18.11
C       6.21       0.68       9.96
C       8.73      15.49       9.44
C       6.35      15.46       9.96
C       8.59       0.71       9.44
C       7.39       1.41       9.70
C       7.55      14.75       9.70
N       8.23       9.00      18.75
N       6.70       7.16       0.66
N       8.24       9.00       0.66
N       6.70       7.16      18.74
N      10.92       8.08       9.70
N       4.02       8.09       9.70
Cl       5.85       5.89      13.72
Cl       9.08      10.28       5.68
Cl       5.86       5.89       5.68
Cl       9.08      10.28      13.72
Cl      13.29       8.11      12.39
Cl       1.64       8.05       7.01
Cl      13.30       8.08       7.01
Cl       1.64       8.09      12.39
O       6.32      10.17       9.70
O       8.62       5.99       9.70
O       6.34       6.12       9.71
O       8.60      10.05       9.70
O       6.34       8.23      11.75
O       8.60       7.94       7.65
O       6.34       8.22       7.66
O       8.60       7.94      11.75
