220

Zn       7.48       9.00      15.54
Zn      26.87      10.78      18.22
Zn       8.95      11.81      15.69
Zn      25.35      11.72      15.60
Zn      18.29       7.26       8.82
Zn      16.83       4.37       8.69
Zn      18.52       5.50       6.18
Zn      20.00       4.52       8.87
Zn      16.02      16.31      22.42
Zn      17.52      15.36      25.10
Zn      15.80      18.10      25.06
Zn      14.33      15.22      24.93
Zn      17.52       4.95      31.97
Zn      14.31       4.82      31.82
Zn      24.62      19.83      31.81
Zn      18.30      17.69       1.96
H      22.99       5.81      11.44
H      20.72       9.47      11.41
H      24.63       6.86      13.03
H      11.31      13.32      22.75
H      13.61      14.79      19.42
H       9.68      12.27      21.15
H      12.16       1.51       4.96
H      14.45       2.90       1.59
H      13.83       2.57       6.51
H      22.16      17.64      29.22
H      11.30       3.58      29.25
H      20.50      16.64      27.63
C       7.37       7.83      18.25
C       9.73      12.29      18.49
C      10.06       9.50      14.23
C      26.95      13.81      14.29
C      24.60       9.31      14.07
C      24.28      12.16      18.30
C      15.68       6.71      10.09
C      16.03       3.95       5.90
C      18.46       8.45       6.13
C      21.07       4.05       6.15
C      20.77       6.95      10.39
C      18.44       2.39      10.17
C      18.63      14.94      22.40
C      18.31      17.75      26.60
C      15.87      19.25      22.36
C      13.25      17.54      26.41
C      13.54      14.74      22.12
C      15.94      13.21      26.36
C      15.90       6.95      30.53
C      22.12      20.15      30.26
C      27.22      20.34      30.52
C      18.40      14.73       2.00
C      12.21       1.52       2.25
C       7.10       1.35       1.99
C      23.62       8.74      13.09
C      21.76       7.57      11.33
C      22.51       9.46      12.61
C      22.86       6.84      11.78
C      21.58       8.89      11.75
C      23.77       7.42      12.65
C      10.71      12.96      19.40
C      12.56      14.11      21.18
C      11.82      13.68      18.94
C      11.45      13.41      21.68
C      12.75      14.24      19.80
C      10.54      12.84      20.79
C      12.32       9.59      13.00
C      13.43       6.61      11.35
C      11.17       8.96      13.44
C      14.59       7.24      10.91
C      12.60       7.45      12.12
C      13.16       8.74      12.25
C      23.02      12.69      20.48
C      19.88      14.38      20.22
C      23.18      12.70      19.11
C      19.72      14.39      21.60
C      21.08      13.77      19.80
C      21.82      13.31      20.90
C       7.29       6.47      20.44
C       7.39       2.90      20.18
C       7.36       6.61      19.06
C       7.30       2.76      21.56
C       7.38       4.25      19.76
C       7.29       5.12      20.86
C      25.89      15.73      12.92
C      28.09      18.17      11.51
C      26.96      15.04      13.48
C      27.02      18.87      10.96
C      27.69      17.03      12.23
C      26.29      16.87      12.21
C      15.08       3.30       4.93
C      13.20       2.14       3.18
C      15.24       3.38       3.54
C      13.03       2.04       4.57
C      14.31       2.82       2.67
C      13.96       2.62       5.43
C      18.49       9.80       3.94
C      18.33      13.37       4.18
C      18.43       9.67       5.32
C      18.40      13.51       2.81
C      18.36      12.03       4.61
C      18.45      11.15       3.52
C       3.72       2.91       5.76
C       4.83       2.50       2.38
C       2.54       3.52       5.34
C       6.00       1.88       2.80
C       3.98       2.88       3.45
C       4.55       2.53       4.69
C      19.25      18.38      27.57
C      21.13      19.53      29.33
C      19.10      19.69      28.05
C      21.30      18.21      28.88
C      20.03      20.28      28.90
C      20.37      17.65      28.01
C      17.01      11.30      27.73
C      14.83       8.87      29.19
C      15.93      11.99      27.18
C      15.90       8.18      29.73
C      15.22      10.01      28.46
C      16.62      10.16      28.46
C      30.60      17.46      27.62
C      29.49      20.42      29.30
C      31.78      18.09      27.22
C      28.32      19.80      29.71
C      30.33      19.58      28.54
C      29.76      18.31      28.39
S      11.09       7.29      12.93
S      14.67       8.90      11.45
S      21.84      13.47      18.29
S      21.06      13.63      22.42
S       7.45       5.07      18.25
S       7.21       4.30      22.37
S      28.49      15.80      13.13
S      25.49      18.12      11.33
S      18.31      11.21       6.13
S      18.50      11.96       2.00
S       2.45       3.64       3.60
S       6.08       1.75       4.54
S      14.41      11.24      27.57
S      17.43       8.93      29.35
S      31.87      19.74      27.77
S      28.24      18.15      29.16
N      22.29      10.89      12.95
N      12.04      13.93      17.49
N      16.42       4.00       2.91
N      17.92      20.52      27.72
O       7.35      10.82      16.26
O       7.35       7.66      16.98
O       8.64      11.89      19.03
O      10.08      10.75      14.49
O       7.39       8.94      18.88
O       9.16       8.65      14.59
O      10.07      12.15      17.28
O       8.46      13.46      14.76
O      24.25      10.37      14.67
O      25.83      13.23      14.45
O       6.06       8.66      14.22
O      25.18      11.51      18.91
O      24.22      12.41      17.04
O      18.41       5.42       8.14
O      16.65       7.52       9.86
O      15.92       3.60       7.12
O      18.64       7.35       5.52
O      15.57       5.50       9.68
O      18.29       8.61       7.40
O      16.84       4.80       5.42
O      20.08       4.54       5.50
O      20.99       5.74      10.06
O      21.21       3.99       7.42
O      19.80       7.68      10.01
O      17.29       2.83       9.82
O      19.57       2.91       9.90
O      15.91      16.25      24.39
O      17.64      15.44      21.77
O      18.43      16.49      26.42
O      15.70      19.42      23.62
O      18.77      14.86      23.68
O      16.02      18.15      21.74
O      17.48      18.52      26.02
O      14.23      18.34      26.21
O      13.32      14.57      23.37
O      13.12      16.34      25.99
O      14.50      15.38      21.60
O      17.07      13.71      26.06
O      14.78      13.64      26.01
O      15.92       3.94      32.52
O      17.05       6.53      30.91
O      21.89      21.35      30.63
O      26.26      19.53      30.77
O      14.77       6.43      30.79
O      18.72       3.84      30.90
O      23.11      19.42      30.61
O      18.48      14.55       0.73
O      11.22       0.93       2.78
O      18.34      15.84       2.62
O      12.44       1.65       1.00
O       6.99       1.45       0.72
O       8.07       0.82       2.64
O      23.06      11.71      12.43
O      21.32      11.15      13.66
O      11.28      14.73      16.94
O      13.02      13.37      16.98
O      17.49       3.40       3.01
O      16.23       5.05       2.28
O      16.85      20.20      28.25
O       9.51       3.78      26.99
F      12.64      10.86      13.26
F      13.11       5.34      11.08
F      23.89      12.17      21.35
F      19.00      14.90      19.35
F       7.21       7.49      21.30
F      16.07      19.60      19.31
F      24.60      15.37      13.05
F      29.38      18.53      11.39
F      18.58       8.78       3.08
F      18.25      14.39       5.05
F       4.05       2.68       7.04
F       4.50       2.73       1.10
F      18.29      11.66      27.59
F      13.54       8.51      29.32
F      30.27      16.19      27.34
F      21.22       3.98      29.58
