166

Zn      12.21       7.02      17.97
Zn       1.70       0.96       0.38
Zn      12.31      19.41       0.44
Zn      22.90       0.90       0.45
Zn      24.42      14.14      11.81
Zn      22.86      13.26       9.12
Zn      26.03      13.20       9.21
Zn      24.54      16.02       9.23
H      17.23       9.15      18.39
H      19.02      10.12      16.96
H      16.19      10.41      13.71
H      19.63      12.18      15.89
H      21.39      13.13      14.40
H      18.23       9.76      12.60
H      23.74      22.86      18.59
H      23.63      20.80      17.20
H      25.16      23.06      13.84
H      25.09      19.22      16.07
H      25.05      17.23      14.57
H      23.52      21.62      12.83
H      32.28      10.33      18.55
H      30.56      11.45      17.13
H      31.69       8.90      13.83
H      28.44      10.94      16.01
H      26.77      12.04      14.52
H      31.32      11.08      12.80
H      15.39      17.34       2.25
H      17.15      16.28       3.66
H      18.32      20.20       5.04
H      17.70      15.92       5.99
H      19.52      14.89       7.34
H      20.45      19.02       4.75
H      22.49       3.85       3.32
H      22.41       5.82       4.85
H      26.42       6.85       3.62
H      22.37       8.24       4.82
H      22.42      10.22       6.33
H      26.44       7.33       5.97
H      31.67      20.55       2.27
H      29.88      19.53       3.66
H      32.71      16.57       5.04
H      29.26      19.21       5.97
H      27.50      18.12       7.36
H      30.66      15.30       4.77
C      14.71       8.56      17.76
C      15.73       9.20      16.87
C      17.02       9.43      17.36
C      18.02       9.99      16.56
C      17.75      10.33      15.22
C      16.46      10.11      14.72
C      15.48       9.56      15.54
C      18.79      10.91      14.36
C      19.71      11.85      14.86
C      20.68      12.39      14.03
C      20.80      12.02      12.68
C      21.86      12.65      11.84
C      19.88      11.07      12.20
C      18.89      10.52      13.01
C      24.47      25.33      17.88
C      24.47      24.11      17.02
C      24.05      22.88      17.55
C      24.00      21.73      16.77
C      24.37      21.77      15.41
C      24.81      22.99      14.87
C      24.86      24.13      15.67
C      24.33      20.57      14.56
C      24.73      19.31      15.04
C      24.72      18.20      14.21
C      24.32      18.29      12.86
C      24.38      17.08      11.99
C      23.89      19.55      12.41
C      23.89      20.67      13.23
C      34.02       8.42      17.88
C      32.96       9.01      17.00
C      32.13      10.03      17.51
C      31.16      10.64      16.72
C      31.00      10.27      15.38
C      31.81       9.25      14.86
C      32.76       8.64      15.66
C      30.00      10.92      14.52
C      28.71      11.22      15.00
C      27.77      11.82      14.16
C      28.07      12.15      12.83
C      27.01      12.75      11.97
C      29.37      11.86      12.38
C      30.32      11.26      13.19
C      14.83      19.91       1.90
C      15.88      19.34       2.81
C      16.05      17.95       2.87
C      17.02      17.36       3.66
C      17.87      18.16       4.44
C      17.71      19.55       4.42
C      16.72      20.12       3.62
C      18.93      17.55       5.27
C      18.69      16.37       6.00
C      19.70      15.80       6.77
C      20.99      16.37       6.84
C      22.02      15.72       7.70
C      21.20      17.54       6.10
C      20.21      18.13       5.33
C      24.48       3.00       1.78
C      24.48       4.22       2.64
C      23.34       4.53       3.40
C      23.30       5.63       4.25
C      24.41       6.48       4.36
C      25.55       6.20       3.59
C      25.57       5.10       2.75
C      24.40       7.64       5.27
C      23.26       8.46       5.40
C      23.29       9.57       6.24
C      24.44       9.91       6.98
C      24.43      11.15       7.82
C      25.55       9.07       6.85
C      25.55       7.96       6.01
C      34.19      19.75       1.93
C      33.17      19.13       2.83
C      31.88      19.67       2.88
C      30.88      19.11       3.67
C      31.15      17.97       4.45
C      32.44      17.42       4.42
C      33.42      18.00       3.63
C      30.10      17.34       5.27
C      29.18      18.13       6.00
C      28.21      17.52       6.78
C      28.09      16.13       6.87
C      27.03      15.54       7.75
C      29.00      15.36       6.13
C      29.99      15.95       5.35
O      12.24       7.05      19.94
O      14.99       8.55      19.01
O      13.67       8.07      17.21
O      21.74      12.56      10.57
O      22.79      13.24      12.47
O      24.41      25.13      19.14
O      24.50      26.46      17.30
O      24.44      17.27      10.73
O      24.41      15.95      12.59
O      33.91       8.64      19.13
O      34.94       7.75      17.31
O      27.21      12.74      10.71
O      25.98      13.21      12.57
O      13.95      19.09       1.47
O      14.92      21.15       1.61
O      23.04      16.42       8.03
O      21.78      14.51       8.05
O      23.35       2.44       1.59
O      25.60       2.60       1.33
O      25.53      11.52       8.33
O      23.30      11.74       7.95
O      33.94      20.95       1.54
O      35.20      19.04       1.61
O      27.02      14.28       7.91
O      26.21      16.38       8.27
O      24.44      14.16       9.86
F      14.24       9.42      15.00
F      19.94      10.62      10.93
F      25.34      25.26      15.09
F      23.42      19.71      11.15
F      33.48       7.64      15.10
F      29.77      12.20      11.13
F      16.59      21.46       3.67
F      22.42      18.13       6.08
F      26.70       4.91       2.02
F      26.69       9.29       7.55
F      34.66      17.45       3.68
F      28.95      14.01       6.12
