86

Al       3.95      14.51       0.00
Al       0.00      14.51      16.76
H       2.74      16.53      13.07
H       2.67      16.56      10.57
H       1.22      12.49      13.06
H       1.22      16.54       3.70
H       2.73      12.50       3.69
H       2.67      12.47       6.19
H       2.74      16.70      20.35
H       2.67      18.85      21.63
H       1.22      18.73      16.86
H       1.22      24.81      25.04
H       2.74      26.84      21.55
H       2.67      24.69      20.28
H       2.74      10.31      16.86
H       2.67      37.16      18.09
H       1.22      12.32      20.36
H       1.22      31.22      21.54
H       2.74      33.23      25.05
H       2.67      35.41      23.82
C       1.98      30.81      24.12
C       1.98      14.51       2.06
C       1.98      27.25      24.11
C       1.98      14.52      14.70
C       1.98      16.29      17.79
C       1.98      12.73      17.79
C       1.98      14.52      13.22
C       2.41      15.66      12.52
C       2.38      15.67      11.13
C       1.98      14.52      10.40
C       1.59      13.39      11.14
C       1.56      13.38      12.52
C       1.98      14.51       8.99
C       1.98      14.52       7.77
C       1.98      14.51       6.36
C       1.60      15.64       5.62
C       1.56      15.65       4.24
C       1.98      14.51       3.54
C       2.41      13.37       4.25
C       2.37      13.36       5.63
C       1.98      17.58      18.54
C       2.41      17.62      19.87
C       2.38      18.81      20.58
C       1.98      20.02      19.95
C       1.60      19.94      18.60
C       1.56      18.75      17.90
C       1.98      21.25      20.64
C       1.98      22.30      21.26
C       1.98      23.52      21.95
C       1.60      23.60      23.31
C       1.56      24.79      24.01
C       1.98      25.96      23.37
C       2.41      25.92      22.03
C       2.38      24.73      21.33
C       1.98      11.44      18.53
C       2.41      39.29      17.89
C       2.38      38.09      18.58
C       1.98      38.03      19.93
C       1.60      39.24      20.54
C       1.56      40.44      19.86
C       1.98      36.82      20.65
C       1.98      35.76      21.25
C       1.98      34.54      21.97
C       1.60      33.33      21.36
C       1.56      32.13      22.04
C       1.98      32.10      23.38
C       2.41      33.28      24.01
C       2.38      34.48      23.33
O       1.05      27.43      24.97
O       1.05      29.98      23.85
O       1.05      15.16       1.47
O       2.90      28.09      23.84
O       2.90      13.86       1.47
O       2.90      30.63      24.98
O       1.05      13.56      18.06
O       1.05      13.87      15.29
O       1.05      16.11      16.94
O       2.90      12.92      16.93
O       2.90      15.45      18.06
O       2.90      15.17      15.30
F       1.23      12.27      10.47
F       1.23      16.76       6.29
F       1.23      21.09      17.96
F       1.23      22.46      23.94
F       1.23      39.22      21.85
F       1.23      33.35      20.05
