118

Zn       7.58       7.75       9.83
Zn       7.58      10.50       9.83
H       9.72       1.23      10.13
H       8.40       7.13      14.08
H       6.76      11.09      14.06
H       6.77       7.13       5.57
H       9.78       9.15       1.27
H       5.39       9.15      18.38
H       9.68       9.09      18.43
H       5.48       9.09       1.22
H       6.10       5.62       8.39
H       9.07      12.63      11.26
H       9.07       5.62      11.26
H       5.45      17.02       9.52
H       6.10      12.63       8.39
H       6.04       3.11       8.32
H       9.12      15.13      11.35
H       9.13       3.11      11.33
H       6.05      15.13       8.31
H       3.34       6.99       9.87
H      11.83      11.27       9.88
H      13.99      12.54       9.84
H       1.18       5.73       9.84
H       9.02      12.00       3.64
H       5.45       1.23       9.52
H       8.17      13.00       1.69
H       6.77      12.53       2.71
H       7.26      11.53       1.31
H       8.97       6.23      16.05
H       8.07       5.23      17.97
H       6.70       5.71      16.92
H       7.16       6.70      18.33
H       6.15      12.00      16.01
H       7.00      13.00      17.96
H       8.39      12.53      16.94
H       9.72      17.02      10.13
H       7.91      11.53      18.34
H       6.20       6.23       3.60
H       7.10       5.23       1.68
H       8.47       5.71       2.73
H       8.01       6.70       1.32
H       3.34      11.27       9.77
H      11.83       6.99       9.78
H       1.18      12.54       9.81
H      13.99       5.73       9.81
H       8.41      11.09       5.60
C       7.59       9.11      12.43
C       8.04       7.99      16.04
C       7.09      10.24      16.02
C       7.13       7.99       3.61
C       7.61       9.12       2.90
C       7.55       9.12      16.75
C       7.59       9.11       5.72
C       7.58       9.11      13.93
C       8.84       9.13       0.71
C       6.32       9.13      18.94
C       8.74       9.11      18.97
C       7.58       9.11       7.22
C       6.43       9.11       0.68
C       7.54       9.12      18.24
C       7.63       9.12       1.42
C       6.75       5.01       9.03
C       8.42      13.24      10.63
C       8.42       5.01      10.63
C       6.75      13.24       9.02
C       6.71       3.62       9.00
C       8.45      14.62      10.66
C       8.45       3.62      10.65
C      14.55      11.60       9.83
C       6.72      14.62       8.99
C       7.58       2.89       9.83
C       7.58      15.36       9.83
C      10.20       9.14       9.84
C       4.97       9.14       9.81
C       8.77       0.69      10.02
C       6.39      17.55       9.63
C       6.39       0.69       9.63
C       8.77      17.55      10.02
C       7.58      16.83       9.83
C       0.62       6.67       9.83
C       7.58       1.42       9.83
C       2.77       7.92       9.84
C      12.40      10.34       9.86
C       3.47       9.13       9.81
C      11.70       9.13       9.84
C       2.77      10.34       9.79
C      12.40       7.92       9.81
C       1.37      10.37       9.81
C      13.80       7.89       9.82
C       0.65       9.13       9.82
C       8.06      10.22       5.03
C      14.52       9.13       9.83
C       1.37       7.89       9.83
C      13.80      10.37       9.84
C       0.62      11.60       9.82
C      14.55       6.67       9.82
C       7.64      12.15       2.13
C       7.55       6.08      17.52
C       7.53      12.15      17.52
C       7.62       6.08       2.13
C       8.05       8.00      14.64
C       7.10      10.22      14.62
C       7.12       8.00       5.01
C       8.08      10.24       3.63
N       7.58       5.69       9.83
N       7.58      12.55       9.83
N       8.58      11.39       2.96
N       8.51       6.85      16.72
N       6.59      11.39      16.69
N       6.66       6.85       2.93
O       7.89       8.01      11.85
O       7.87      10.20       7.81
O       7.28       8.01       7.80
O       7.30      10.20      11.84
O       9.62       8.03       9.58
O       5.55      10.24       9.55
O       5.55       8.03      10.08
O       9.62      10.24      10.11
