184

Al       7.03      13.50      11.19
Al       0.29       6.23      22.47
Al       3.68      13.50      11.18
Al       3.64       6.22      22.45
H       3.92      10.16       1.26
H       3.40       9.56      12.53
H       3.94      13.05       5.07
H       3.38       6.68      16.35
H       3.63      12.09       2.83
H       3.69       7.64      14.11
H       5.85       9.10      10.20
H       1.47      10.63      21.48
H       5.48       7.12       8.76
H       1.84      12.61      20.04
H       4.66      12.83       7.42
H       2.66       6.90      18.70
H       3.44      15.98       7.70
H       3.88       3.74      18.98
H       3.63      17.88       6.06
H       3.69       1.84      17.33
H       3.32       0.31       2.69
H       4.00      19.41      13.97
H       0.54      17.09       9.39
H       6.78       2.63      20.67
H       1.87       1.75      22.36
H       2.06       0.80       1.28
H       3.88       0.79      21.36
H       4.90      19.64       0.28
H       2.87      18.18       0.01
H       3.88      18.12      21.11
H       2.39      19.09      21.12
H       5.45      17.97      11.08
H       5.26      18.92      12.56
H       3.44      18.94      10.08
H       2.42       0.09      11.56
H       4.45       1.55      11.29
H       3.45       1.60       9.83
H       4.93       0.64       9.84
H       2.20       0.58       5.04
H       1.55       0.91       3.42
H       1.40      18.32       5.29
H       7.17      18.72       3.85
H       2.41      18.30       2.37
H       2.11      16.89       3.39
H       3.46      17.97       3.76
H       5.12      19.14      16.32
H       5.77      18.82      14.69
H       5.92       1.40      16.57
H       0.15       1.01      15.12
H       4.91       1.43      13.64
H       5.22       2.84      14.66
H       3.86       1.75      15.04
H       3.64       5.61       6.01
H       3.92       6.15       7.68
H       6.02       4.92       5.79
H       6.34       5.39       7.45
H       4.67       3.68       8.28
H       5.88       2.89       7.23
H       4.27       3.26       6.60
H       3.68      14.11      17.28
H       3.40      13.58      18.96
H       1.30      14.80      17.06
H       0.98      14.34      18.73
H       2.65      16.05      19.56
H       1.45      16.83      18.51
H       3.06      16.47      17.88
H       2.00      12.82       9.60
H       5.32       6.90      20.87
H       5.37      13.08      12.88
H       1.96       6.65       1.60
C       2.06      11.77      12.88
C       5.26       7.95       1.60
C       1.97      15.41      12.64
C       5.35       4.31       1.36
C       5.30      15.26       9.56
C       2.03       4.46      20.84
C       5.40      11.66       9.60
C       1.92       8.06      20.88
C       4.12      11.17       3.16
C       3.21       8.56      14.43
C       5.12       9.03       2.64
C       2.20      10.70      13.92
C       5.61       9.24       9.15
C       1.71      10.49      20.42
C       5.43       8.12       8.32
C       1.89      11.61      19.60
C       5.16       8.28       6.96
C       2.16      11.45      18.24
C       5.19       9.59       6.38
C       2.13      10.14      17.66
C       5.13      10.70       7.27
C       2.20       9.02      18.55
C       5.10       9.81       4.95
C       2.22       9.91      16.23
C       4.50      11.03       4.51
C       2.82       8.70      15.79
C       4.34      12.10       5.44
C       2.98       7.62      16.72
C       4.73      11.98       6.74
C       2.59       7.75      18.02
C       5.61       8.94       3.94
C       1.71      10.78      15.22
C       4.32      10.13       2.27
C       3.00       9.60      13.55
C       5.39      10.51       8.65
C       1.93       9.21      19.93
C       5.29       3.08       2.22
C       2.03      16.64      13.49
C       6.23       2.80       3.23
C       1.09      16.92      14.51
C       6.05       1.73       4.12
C       1.27      18.00      15.40
C       4.90       0.91       3.98
C       2.42      18.81      15.26
C       4.09       1.06       2.85
C       3.23      18.67      14.13
C       4.25       2.14       1.99
C       3.07      17.59      13.27
C       4.40      17.71       6.81
C       2.93       2.02      18.08
C       4.30      16.65       7.70
C       3.02       3.08      18.98
C       5.47      18.61       6.88
C       1.85       1.12      18.16
C       5.34      16.42       8.62
C       1.98       3.31      19.89
C       6.43      17.29       8.68
C       0.89       2.43      19.96
C       6.46      18.42       7.87
C       0.86       1.31      19.14
C       2.62       1.27       0.45
C       3.44       0.26      22.22
C       3.25      18.78      21.73
C       4.71      18.46      11.72
C       3.88      19.47      10.94
C       4.07       0.95      10.45
C       1.31       0.49       4.41
C       1.48      18.77       4.28
C       2.42      17.94       3.41
C       6.01      19.23      15.68
C       5.84       0.96      15.56
C       4.90       1.79      14.68
C       4.41       5.99       6.70
C       5.56       5.01       6.78
C       5.07       3.64       7.25
C       2.92      13.73      17.98
C       1.76      14.72      18.06
C       2.25      16.09      18.53
I       0.71       0.08       8.10
I       6.62      19.65      19.38
I       1.29       3.93       3.52
I       6.03      15.80      14.80
I       0.63       7.78       4.39
I       6.69      11.95      15.66
N       5.25      19.55       4.84
N       2.07       0.17      16.12
N       4.99       0.01       6.04
N       2.33      19.72      17.32
O       3.06      14.78      12.47
O       4.26       4.94       1.20
O       0.94      12.31      12.62
O       6.38       7.41       1.34
O       6.53      11.97      10.11
O       0.79       7.75      21.39
O       0.85      15.08      12.16
O       6.47       4.65       0.88
O       6.41      14.71       9.84
O       0.91       5.01      21.11
O       3.18      12.07      12.33
O       4.14       7.66       1.06
O       2.00      13.43      10.35
O       5.33       6.30      21.63
O       4.15      14.93      10.00
O       3.17       4.80      21.28
O       4.29      12.24       9.84
O       3.03       7.49      21.12
O       5.36      13.50      12.01
O       1.97       6.22       0.73
O       3.45       2.35       0.91
O       3.87      17.38      12.19
O       0.33       1.38       5.02
O       6.99      18.34      16.29
O       4.78       7.27       6.14
O       2.54      12.46      17.42
