116

Zn       5.75       0.28      17.23
Zn       3.15      12.61      17.45
Zn       1.83       0.27       0.09
Zn       7.18      12.65      34.49
H       4.98       0.48       3.99
H       5.25       0.47       6.45
H       1.07      12.23       6.85
H       6.57      12.22      10.47
H       2.33       0.47      10.87
H       2.60       0.48      13.33
H       2.29      12.56       8.79
H       5.35      12.55       8.52
H       6.94      12.19      30.45
H       6.89      12.16      27.98
H       2.65       0.51      28.10
H       7.63       0.50      23.84
H       3.45      12.15      23.97
H       3.40      12.16      21.49
H       3.60       0.10      26.02
H       6.68       0.11      25.92
H       0.43      12.16       3.30
H       6.67      11.86       4.90
H       7.22      12.15      14.02
H       7.85      11.85      12.41
H       2.47       0.69      31.70
H       8.52       0.96      30.18
H       7.80       0.67      20.23
H       1.75       0.95      21.75
H       6.05       9.79      16.60
H       1.43       2.84      18.13
H       1.59       9.78       0.72
H       8.86       2.88      33.81
C       3.67       2.62      17.36
C       4.73       0.06      14.78
C       3.85      10.09      17.38
C       5.27       0.12      19.79
C       6.61       2.67      34.57
C       2.85       0.05       2.54
C       6.47      10.14      34.57
C       5.00       0.16      32.15
C       2.89       0.03       4.00
C       4.14       0.26       4.63
C       4.29       0.24       6.00
C       3.19      12.60       6.83
C       1.95      12.40       6.22
C       1.77      12.41       4.82
C       3.26      12.59       8.28
C       4.39      12.58       9.03
C       5.69      12.40      11.10
C       4.46      12.60      10.49
C       3.30       0.24      11.31
C       3.45       0.26      12.68
C       4.69       0.03      13.31
C       5.87      12.41      12.50
C       4.84       0.10      30.70
C       6.02      12.43      29.92
C       5.99      12.42      28.54
C       4.74       0.07      27.86
C       3.60       0.32      28.62
C       3.60       0.35      30.03
C       4.63       0.07      26.41
C       5.65       0.07      25.53
C       6.68       0.31      23.32
C       5.54       0.06      24.08
C       4.35      12.40      23.40
C       4.32      12.40      22.03
C       5.43       0.08      21.25
C       6.67       0.33      21.91
C       4.79       7.72      16.89
C       2.59       4.97      17.80
C       3.81       8.62      17.34
C       3.58       4.08      17.35
C       3.04       6.30      17.62
C       4.32       6.40      17.05
C       2.84       7.70       0.43
C       7.71       5.01      34.15
C       6.50       8.67      34.61
C       6.71       4.13      34.59
C       7.26       6.35      34.33
C       3.30       6.38       0.27
C       6.13       7.90      16.25
C       8.13       4.74      18.44
C       1.49       7.89       1.06
C       9.03       4.78      33.51
S       2.37       7.85      17.94
S       5.01       4.87      16.74
S       7.94       7.89      34.01
S       2.60       4.85       0.58
N       0.53      12.21       4.31
N       7.11      12.20      13.01
N       2.44       0.59      30.69
N       7.83       0.58      21.24
O       4.82       2.12      17.17
O       2.60       1.90      17.56
O       3.65       0.08      15.45
O       5.91       0.06      15.35
O       2.73      10.71      17.56
O       4.96      10.70      17.24
O       6.34       0.20      19.04
O       4.10       0.08      19.29
O       2.78       2.10       0.14
O       7.68       1.94      34.38
O       3.94       0.07       1.87
O       1.67       0.05       1.96
O       7.59      10.75      34.38
O       2.68      10.69       0.08
O       3.93       0.25      32.90
O       6.17       0.12      32.65
O       6.66       9.12      16.15
O       6.72       6.90      15.83
O       7.66       3.49      18.54
O       7.49       5.70      18.86
O       0.97       9.11       1.16
O       0.89       6.90       1.48
O       2.63       3.53      33.40
O       2.80       5.74      33.09
