192

Cr      -1.10       2.21       6.88
Cr       3.39      -0.31      10.16
Cr       7.88      -1.89       6.33
Ga       1.60       5.36       5.33
Ga       1.08       7.03       1.52
Ga      -2.89       6.20       1.98
Ga      -3.41       8.66       5.33
Ga       6.09       8.68       4.38
Ga       5.57       4.55       4.84
Ga       2.88       1.36       6.34
Ga       7.37       0.58       9.69
Ga      -1.61      -1.93       7.34
P       1.59       3.70       7.73
P       3.71       6.89       3.64
P       6.08      -1.80      11.03
P      -0.78       6.89       4.15
P      10.57      -1.91       4.62
P       8.20       6.46       3.90
P       2.88       3.02       3.96
P       0.79      -0.16       8.05
P      -1.61       8.55       0.63
P       5.29      -0.14       7.52
P      -6.10       8.67       7.09
P      -3.70       0.30       7.80
H      -0.78       3.73       8.95
H      -2.33       3.04       9.00
H      -1.26       4.28       5.38
H      -1.19       0.33       5.08
H       0.25       1.14       4.90
H      -1.39       5.39       7.56
H      -2.91       5.25       8.48
H      -3.37       5.22       5.99
H      -3.77       3.65       6.74
H      -2.88       3.59       3.72
H      -3.28       2.21       4.80
H      -1.65       1.45       3.10
H      -0.53       2.76       3.58
H       3.71      -2.87      10.43
H       2.16      -2.57       9.81
H       7.73       6.69       1.02
H       3.30       2.18       9.43
H       4.74       1.93      10.22
H       7.60       4.25       0.89
H       6.07       3.52       0.31
H       5.61       5.69       1.53
H       0.72      -0.92      11.47
H       6.10       8.48       1.25
H       1.21       1.48      11.20
H       2.84       3.34      11.39
H       8.46       9.01       0.60
H       8.20      -0.86       3.98
H       6.65      -0.47       4.55
H       3.23       9.26       5.29
H       7.79      -2.51       8.85
H       9.23      -3.07       8.24
H       3.10      10.60       3.24
H       1.58      11.47       2.89
H       1.12       9.32       4.16
H       5.21      -2.73       5.15
H       1.61       8.17       6.72
H       5.70      -3.70       7.37
H       7.33      -4.79       8.88
H       3.96       8.47       7.50
H       5.25       3.05       2.77
H       6.80       3.75       2.70
H       5.78       2.44       6.35
H       5.65       6.44       6.61
H       4.22       5.59       6.77
H       5.90       1.37       4.11
H       7.42       1.55       3.20
H       7.87       1.52       5.68
H       8.27       3.11       4.97
H       7.36       3.19       8.01
H       7.78       4.53       6.89
H       6.15       5.34       8.57
H       5.02       4.02       8.13
H       0.76       9.57       1.26
H       2.31       9.28       1.90
H      -3.21       0.03      10.62
H       1.16       4.55       2.27
H      -0.27       4.83       1.45
H      -3.09       2.50      10.82
H      -1.56       3.20      11.43
H      -1.12       1.07      10.16
H       3.78       7.63       0.21
H      -1.62      -1.78      10.44
H       3.29       5.26       0.48
H       1.66       3.40       0.34
H      -3.96      -2.30      11.10
H      -3.73       7.62       7.66
H      -2.18       7.20       7.09
H       1.29      -2.47       6.40
H      -3.33       9.25       2.81
H      -4.76       9.82       3.46
H       1.41      -3.87       8.45
H       2.93      -4.76       8.74
H       3.38      -2.59       7.53
H      -0.71       9.49       6.50
H       2.87      -1.40       4.92
H      -1.20      10.45       4.32
H      -2.83      11.50       2.78
H       0.53      -1.72       4.14
C      -2.23       4.73       7.79
C      -2.96       4.34       6.51
C      -2.49       2.90       4.47
C      -1.32       2.09       3.93
C       6.75       4.38       0.19
C       6.02       5.68       0.51
C       6.49       8.17       0.27
C       3.17       2.30      11.52
C       2.26      11.13       3.69
C       1.53      10.21       4.67
C       2.00       9.17       6.94
C       7.66      -4.38       7.91
C       6.73       2.05       3.89
C       7.46       2.41       5.19
C       6.98       3.86       7.22
C       5.81       4.69       7.75
C      -2.25       2.35      11.52
C      -1.53       1.05      11.18
C      -2.00      -1.44      11.41
C       1.32       4.43       0.18
C       2.24      -4.41       7.96
C       2.96      -3.46       7.00
C       2.49      -2.42       4.73
C      -3.17      11.12       3.75
N      -1.65       3.51       8.41
N      -1.99       3.61       5.67
N      -0.76       1.27       5.04
N       2.84      -2.30      10.52
N       6.99       6.78       0.30
N       3.74       1.75      10.26
N       7.33      -1.21       4.44
N       2.50       9.85       5.72
N       8.23      -3.01       8.07
N       6.13       3.26       3.29
N       6.49       3.12       6.05
N       5.23       5.49       6.64
N       1.64       9.01       1.18
N      -2.49      -0.05      11.36
N       0.74       4.99       1.44
N      -2.85       7.96       7.22
N       2.00      -3.06       5.96
N      -3.75       9.75       3.61
O       0.55       3.22       6.66
O       2.14       5.04       7.08
O       2.78       2.65       7.69
O       1.08       3.89       9.12
O       2.82       6.73       4.92
O       4.35       8.33       3.78
O       2.92       6.81       2.35
O       4.85       5.86       3.62
O       5.04      -0.63      11.14
O      11.13       4.84       0.83
O       7.27      -1.24      10.13
O       5.57      -3.10      10.49
O      -1.67       5.87       3.36
O      -0.14       6.06       5.33
O      -1.57       8.06       4.72
O       0.36       7.43       3.26
O       9.53      -2.59       5.57
O       6.63      10.36       3.78
O      -1.71      -1.41       5.55
O      10.06      -0.79       3.76
O       7.31       7.64       3.40
O       8.84       5.85       2.58
O       7.41       5.37       4.61
O      -4.13       6.95       4.80
O       3.89       3.52       5.04
O       2.32       1.67       4.59
O       1.67       4.06       3.99
O       3.41       2.85       2.57
O       1.68      -0.02       6.77
O       0.14      -1.60       7.93
O       1.60      -0.09       9.34
O      -0.32       0.89       8.08
O      -0.60       7.37       0.53
O      -6.66       1.93      10.83
O      -2.82       8.01       1.53
O      -1.08       9.84       1.18
O       6.18       0.89       8.28
O       4.63       0.68       6.34
O       6.09      -1.30       6.93
O       4.17      -0.69       8.41
O      -5.09       9.35       6.11
O      -2.17      -3.60       7.94
O       6.16       8.16       6.17
O      -5.58       7.55       7.93
O      -2.81      -0.87       8.32
O      -4.35       0.92       9.10
O      -2.89       1.39       7.09
O       8.66      -0.19       6.88
