118

Zn       6.15       5.40      14.06
Zn       3.34       5.41      14.08
H       2.60       5.40      18.38
H       2.62       5.35      20.90
H       2.58       5.44       9.80
H       2.54       5.38       7.29
H       4.85       1.89       0.95
H       5.49       1.99      27.21
H       6.89       5.35      18.35
H       6.92       5.30      20.86
H       3.85       8.50      24.69
H       4.39       8.66       0.97
H       6.86       5.29       9.75
H       4.40       8.62       3.44
H       6.83       5.22       7.24
H       3.81       8.55      27.17
H       6.45       1.15      12.78
H       2.75       1.16      14.96
H       4.91       1.15      11.91
H       2.73       1.16      13.20
H       4.93       9.66      11.91
H       2.75       9.67      13.21
H       6.46       9.65      12.78
H       2.77       9.67      14.97
H       6.47       1.15      15.31
H       4.96       1.15      16.21
H       6.50       9.65      15.30
H       4.98       9.66      16.21
H       1.15       4.08      15.71
H       8.34       4.08      15.72
H       1.15       3.31      14.12
H       8.34       3.31      14.13
H       1.15       6.47      15.90
H       8.33       6.46      15.91
H       1.14       6.44      12.27
H       8.33       6.44      12.28
H       1.14       4.68      12.13
H       8.34       4.68      12.13
H       1.14       7.48      14.45
H       8.33       7.47      14.45
H       6.07       0.87      25.41
H       5.06       1.20      23.97
H       6.70       1.77      24.00
H       3.57       0.40       4.63
C       4.75       2.81      14.06
C       4.73       5.39      16.72
C       4.75       8.00      14.06
C       4.73       5.39      11.42
C       5.09       4.08      23.08
C       4.43       6.50      23.10
C       5.98       5.32      20.31
C       5.96       5.35      18.92
C       3.54       5.37      18.94
C       3.55       5.35      20.33
C       4.77       5.32      21.00
C       4.70       5.25      25.27
C       5.06       4.06      24.56
C       5.37       2.89      25.27
C       4.41       6.45      24.57
C       4.74       5.37      18.22
C       4.72       5.36       9.92
C       4.81       4.04       0.73
C       4.52       6.52       0.74
C       4.65       5.28       1.43
C       4.80       2.85       1.46
C       4.71       2.83       2.86
C       4.70       4.04       3.57
C       4.63       5.26       2.86
C       4.52       6.49       3.57
C       4.48       6.52       5.05
C       4.84       4.04       5.05
C       3.48       5.35       7.84
C       3.50       5.39       9.23
C       5.92       5.30       9.20
C       5.90       5.27       7.81
C       4.68       5.29       7.14
C       4.86       4.04      27.41
C       4.64       5.26      26.70
C       4.36       6.47      27.40
C       5.25       2.91      26.68
C       4.08       7.61      25.27
C       4.44       7.70       1.48
C       4.45       7.69       2.87
C       4.06       7.62      26.66
C       5.42       0.75      12.80
C       3.26       0.76      14.08
C       5.44      10.05      12.80
C       3.29      10.06      14.08
C       5.45       0.76      15.31
C       4.71       1.29      14.06
C       4.73       9.53      14.06
C       5.47      10.05      15.31
C       0.74       4.15      14.70
C       8.75       4.14      14.70
C       0.73       6.56      14.89
C       8.75       6.56      14.89
C       0.73       5.52      12.70
C       8.75       5.52      12.71
C       5.82       1.61      24.64
C       4.64       1.47       3.49
N       4.77       5.31      22.45
N       4.65       5.28       5.69
N       1.24       5.41      14.10
N       8.24       5.40      14.10
O       5.89       3.36      14.05
O       3.63       3.42      14.06
O       5.85       5.40      16.12
O       3.58       5.40      16.16
O       5.90       7.44      14.04
O       3.63       7.40      14.08
O       5.86       5.39      12.00
O       3.60       5.42      12.00
O       5.38       3.10      22.39
O       5.15       3.04       5.69
O       4.17       7.52      22.46
O       4.32       7.55       5.69
O       5.45       0.58       3.26
O       3.51       1.29       4.21
