112

Zn      11.29       6.14       8.90
Zn      12.13       8.84       8.60
H       3.88       4.72       6.54
H      19.61      10.10      11.36
H       8.63       2.30      11.03
H      13.08      13.64       7.09
H       9.87       4.47      10.98
H      11.96      11.39       7.05
H      10.68       4.10       6.93
H      14.48       9.91       9.98
H       9.50       1.88       6.81
H      15.69      12.10      10.18
H      17.33       4.23       6.36
H       6.17      10.59      11.52
H       5.71       6.06       7.43
H      17.76       8.79      10.47
H       9.52       6.10       4.86
H      10.82       9.99      12.71
H      12.37       8.78       1.81
H      11.40       6.03      15.66
H       6.55       7.99       5.31
H      15.20       7.90      11.94
H       9.50      11.50       9.42
H       9.94      11.89      11.12
H       8.30      12.31      10.50
H      13.64       2.84       6.82
H      14.02       3.41       8.48
H      15.28       2.57       7.50
H       7.13       5.03       2.77
H       9.79      12.31      14.88
H      14.33      10.28       4.38
H      13.71       4.81      12.34
C      11.62       7.79      11.35
C      11.56       7.32       6.16
C       4.70       6.29       7.74
C      18.77       8.58      10.12
C       3.68       5.52       7.26
C      19.79       9.34      10.60
C       9.82       6.75       2.82
C      10.67       9.24      14.74
C      10.16       6.65       4.18
C      10.97       9.14      13.37
C      11.29       7.30       4.69
C      11.43       7.94      12.83
C      12.09       8.07       3.82
C      11.59       6.82      13.66
C      11.75       8.19       2.48
C      11.28       6.90      15.01
C      10.62       7.52       1.95
C      10.83       8.11      15.58
C      10.41       7.65       0.56
C      10.63       8.12      16.98
C       9.07       2.65      10.10
C      13.41      12.84       7.75
C      14.09       6.44       8.82
C       9.34       8.56       8.80
C       9.76       3.87      10.08
C      12.79      11.60       7.72
C      10.22       3.64       7.81
C      14.20      10.77       9.38
C       9.56       2.42       7.75
C      14.87      11.98       9.48
C       8.97       1.91       8.92
C      14.46      13.06       8.66
C       8.31       0.65       8.87
C      15.10      14.32       8.76
C      15.53       6.07       8.59
C       7.90       8.89       9.12
C      17.13       4.95       7.15
C       6.35       9.91      10.68
C      15.82       5.16       7.54
C       7.65       9.72      10.24
C      16.59       6.69       9.28
C       6.83       8.26       8.47
C      17.92       6.63       8.76
C       5.52       8.28       9.04
C      18.18       5.71       7.71
C       5.28       9.18      10.12
C      18.99       7.52       9.19
C       4.46       7.38       8.63
C       7.11       7.73       7.09
C      16.35       7.04      10.72
C       9.13      11.58      10.45
C      14.42       3.26       7.46
C       8.62       6.06       2.28
C      10.19      10.52      15.31
C      13.38       8.66       4.29
C      12.13       5.52      13.14
N      10.32       4.34       8.95
N      13.17      10.60       8.53
O      11.42       6.62      10.91
O      11.98       8.43       6.61
O      11.94       8.82      10.67
O      11.31       6.27       6.84
O      13.24       5.53       9.07
O      10.14       9.48       8.44
O      13.83       7.67       8.63
O       9.63       7.35       9.02
O       7.94       6.90       6.76
O       6.32       8.37       6.18
O      16.94       6.47      11.62
O      15.36       7.94      10.97
O       8.69      10.29      10.94
O      14.80       4.51       6.87
O       8.31       6.00       1.10
O       7.86       5.46       3.26
O       9.90      10.70      16.49
O      10.11      11.53      14.39
O      14.31       8.02       4.73
O      13.43      10.01       4.09
O      11.54       4.46      13.15
O      13.43       5.67      12.73
