118

Zr       0.19      19.56      17.40
Zr       0.07       2.17       0.74
Zr       0.12      16.45       0.48
Zr       0.12      18.85       3.08
Zr       2.62      19.00       0.61
Zr      13.18      18.98       0.58
H      10.07      19.17      12.48
H       7.90      19.40      16.20
H       5.76      19.43      12.45
H       5.74      19.07       8.12
H       7.85      19.02       4.35
H      10.05      19.25       8.06
H      10.03       7.16       0.63
H       7.89       3.41       0.52
H       5.71       7.14       0.49
H      10.03      11.50       0.54
H       7.92      15.27       0.59
H       5.72      11.56       0.64
H      13.82       2.17      17.86
H       1.97       1.65       2.74
H      13.70      16.98       2.60
H       2.13      17.48      17.90
H       1.00       4.11       2.37
H      14.74       0.85       5.27
H       0.83      16.97       4.82
H       0.12      15.90       3.25
H      14.99      15.17      17.98
H       0.12      16.81      16.86
H       0.68       1.90      15.46
H      14.95       4.91      18.71
H      14.91      14.63       2.53
H      14.81      17.65      15.76
H       0.97       4.67      18.52
H       0.76       0.70       5.55
C       7.91      19.29      12.30
C       9.13      19.24      13.02
C       9.12      19.27      14.42
C       7.90      19.37      15.11
C       6.69      19.43      14.41
C       6.69      19.38      13.00
C       7.90      19.17       8.25
C       6.67      19.09       7.56
C       6.65      19.03       6.16
C       7.86      19.06       5.44
C       9.09      19.14       6.12
C       9.10      19.19       7.53
C       7.86       7.31       0.57
C       9.09       6.61       0.59
C       9.10       5.21       0.58
C       7.88       4.50       0.53
C       6.66       5.19       0.50
C       6.65       6.60       0.52
C       7.87      11.36       0.59
C       9.10      12.06       0.57
C       9.12      13.46       0.56
C       7.91      14.18       0.59
C       6.68      13.50       0.62
C       6.67      12.09       0.62
C       3.43      19.62      16.83
C      12.36       2.79       0.66
C       3.39       2.77       0.48
C      12.39      19.25      16.84
C      12.45      15.79       0.48
C       3.35      18.84       3.80
C      12.38      19.08       3.72
C       3.37      15.87       0.66
C      11.36      14.85       0.49
C      10.35      14.18       0.52
C       5.47      14.24       0.65
C       4.47      14.93       0.68
C      10.31       4.47       0.61
C      11.28       3.73       0.64
C       5.45       4.44       0.45
C       4.48       3.71       0.43
C       7.86       8.73       0.58
C       7.86       9.95       0.59
C      11.28      19.16       4.66
C      10.29      19.15       5.37
C       5.43      18.94       5.44
C       4.43      18.87       4.75
C      10.32      19.22      15.17
C      11.30      19.20      15.91
C       4.51      19.60      15.88
C       5.48      19.52      15.15
C       7.92      19.25      10.89
C       7.91      19.22       9.67
O       2.24      19.67      16.38
O       3.79      19.57      18.06
O      13.55       3.24       0.62
O      12.02       1.56       0.70
O       2.21       3.21       0.34
O       3.72       1.55       0.71
O      13.57      19.11      16.40
O      12.05      19.47      18.06
O      15.46       1.65      16.01
O       0.15      17.61      16.19
O       0.08       4.28      18.38
O       0.19       3.63       2.10
O       1.20       1.21      18.94
O      14.30       1.59      18.48
O      13.65      15.34       0.49
O      12.10      17.02       0.49
O       2.14      18.78       4.25
O       3.69      18.89       2.58
O      13.57      19.15       4.17
O      12.03      18.93       2.50
O       2.18      15.43       0.66
O       3.73      17.10       0.61
O       0.14      15.22       2.44
O       0.16      15.82      18.04
O       0.07      17.06       4.22
O       0.10       1.00       4.90
O      14.26      17.51       2.01
O       1.18      17.91       1.62
O      14.66      18.43      18.90
O       1.43       1.08       2.17
O       1.56      18.05      18.45
O      14.54       0.69       1.71
