34

Cu       1.79       4.38       5.49
Cu       3.99       5.60       5.39
H       0.96       1.94       3.98
H       4.82       8.04       6.90
H       3.44       0.56       6.94
H       2.33       9.42       3.94
H       4.63       6.02       1.23
H       1.14       3.96       9.65
H       1.01       3.71       1.28
H       4.77       6.27       9.60
C       0.58       1.14       4.62
C       5.20       8.84       6.26
C       4.79       1.39       5.48
C       0.98       8.60       5.40
C       4.14       2.72       5.51
C       1.64       7.26       5.37
C       4.30       0.36       6.29
C       1.48       9.62       4.59
C       3.84       5.52       0.68
C       1.94       4.46      10.20
C       2.83       4.87       1.40
C       2.95       5.12       9.48
C       2.86       4.88       2.89
C       2.92       5.10       7.99
C       1.79       4.21       0.71
C       3.98       5.77      10.17
O       2.87       2.73       5.60
O       2.91       7.26       5.28
O       4.87       3.77       5.43
O       0.90       6.21       5.45
O       1.89       4.33       3.51
O       3.89       5.65       7.37
O       3.87       5.45       3.43
O       1.91       4.53       7.45
