236

Zn       3.71      10.21       3.25
Zn      11.56       5.06      14.46
Zn       2.58       3.92       8.85
Zn      12.70      11.35      20.06
Zn       3.92       2.58       2.35
Zn      11.35      12.70      13.55
Zn       5.06      11.56      19.15
Zn      10.21       3.71       7.95
Zn       4.23      11.04       0.00
Zn      11.04       4.23      11.20
Zn       3.41       3.41       5.60
Zn      11.86      11.86      16.80
H       0.13      11.40      21.48
H      14.77       9.59       2.93
H      12.32       9.49       2.40
H      10.30       9.66       1.91
H       7.96       9.87       1.09
H       9.52      11.23      19.72
H       6.70      12.13       1.93
H      15.14       3.87      10.28
H       0.50       5.68      14.13
H       2.95       5.78      13.60
H       4.97       5.61      13.11
H       7.31       5.40      12.30
H       5.75       4.04       8.51
H       8.57       3.14      13.13
H       3.76       7.51       4.68
H       1.95       8.14       8.53
H       1.85      10.59       8.00
H       2.02      12.60       7.51
H       2.23      14.95       6.69
H       3.59      13.39       2.91
H       4.50       0.93       7.53
H      11.51       7.77      15.88
H      13.32       7.13      19.73
H      13.42       4.69      19.20
H      13.25       2.67      18.71
H      13.04       0.32      17.90
H      11.68       1.88      14.11
H      10.77      14.34      18.74
H       7.51       3.76       6.52
H       8.14       1.95       2.67
H      10.59       1.85       3.20
H      12.60       2.02       3.69
H      14.95       2.23       4.51
H      13.39       3.59       8.29
H       0.93       4.50       3.67
H       7.77      11.51      17.73
H       7.13      13.32      13.87
H       4.69      13.42      14.40
H       2.67      13.25      14.90
H       0.32      13.04      15.71
H       1.88      11.68      19.49
H      14.34      10.77      14.87
H       3.87      15.14       0.92
H       5.68       0.50      19.48
H       5.78       2.95      20.01
H       5.61       4.97      20.50
H       5.40       7.31      21.31
H       4.04       5.75       2.69
H       3.14       8.57      20.47
H      11.40       0.13      12.13
H       9.59      14.77       8.27
H       9.49      12.32       8.80
H       9.66      10.30       9.30
H       9.87       7.96      10.11
H      11.23       9.52      13.89
H      12.13       6.70       9.27
C      14.75      10.97      22.25
C      15.27      10.51       1.05
C      14.38       9.97       1.98
C      13.02       9.91       1.68
C      12.58      10.40       0.45
C      11.15      10.39       0.04
C      10.11      10.01       0.89
C       8.80      10.12       0.44
C       8.55      10.57      21.55
C       9.65      10.88      20.74
C       1.48      10.58       1.32
C       7.13      10.82      21.09
C       6.00      11.54       2.55
C       0.52       4.30      11.04
C       0.00       4.77      12.25
C       0.89       5.31      13.19
C       2.25       5.36      12.89
C       2.70       4.87      11.65
C       4.12       4.88      11.25
C       5.16       5.27      12.10
C       6.47       5.16      11.65
C       6.72       4.70      10.35
C       5.62       4.39       9.54
C      13.79       4.69      12.53
C       8.14       4.45       9.89
C       9.27       3.74      13.75
C       3.34       8.15       5.44
C       2.87       7.64       6.65
C       2.33       8.53       7.59
C       2.28       9.88       7.29
C       2.76      10.33       6.05
C       2.75      11.76       5.64
C       2.37      12.80       6.50
C       2.48      14.11       6.04
C       2.94      14.36       4.74
C       3.25      13.26       3.94
C       2.95       6.16       6.92
C       3.18       0.50       4.29
C       3.90       1.64       8.15
C      11.94       7.12      16.64
C      12.40       7.63      17.86
C      12.94       6.74      18.79
C      12.99       5.39      18.49
C      12.51       4.94      17.25
C      12.52       3.51      16.85
C      12.90       2.47      17.70
C      12.79       1.16      17.25
C      12.33       0.91      15.95
C      12.02       2.01      15.14
C      12.33       9.11      18.13
C      12.09      14.77      15.49
C      11.37      13.63      19.35
C       8.15       3.34       5.76
C       7.64       2.87       4.55
C       8.53       2.33       3.62
C       9.88       2.28       3.92
C      10.33       2.76       5.15
C      11.76       2.75       5.56
C      12.80       2.37       4.71
C      14.11       2.48       5.16
C      14.36       2.94       6.46
C      13.26       3.25       7.27
C       6.16       2.95       4.28
C       0.50       3.18       6.91
C       1.64       3.90       3.06
C       7.12      11.94      16.96
C       7.64      12.40      15.75
C       6.74      12.94      14.82
C       5.39      12.99      15.12
C       4.94      12.51      16.36
C       3.52      12.52      16.76
C       2.47      12.90      15.91
C       1.16      12.79      16.36
C       0.91      12.33      17.66
C       2.01      12.02      18.47
C       9.11      12.33      15.48
C      14.77      12.09      18.12
C      13.63      11.37      14.26
C       4.30       0.52       0.16
C       4.77       0.00      21.35
C       5.31       0.89      20.42
C       5.36       2.25      20.72
C       4.87       2.70      21.96
C       4.88       4.12      22.36
C       5.27       5.16      21.51
C       5.16       6.47      21.96
C       4.70       6.72       0.86
C       4.39       5.62       1.66
C       4.69      13.79      21.08
C       4.45       8.14       1.31
C       3.74       9.27      19.86
C      10.97      14.75      11.36
C      10.51      15.27      10.15
C       9.97      14.38       9.22
C       9.91      13.02       9.52
C      10.40      12.58      10.75
C      10.39      11.15      11.16
C      10.01      10.11      10.31
C      10.12       8.80      10.76
C      10.57       8.55      12.06
C      10.88       9.65      12.87
C      10.58       1.48       9.88
C      10.82       7.13      12.52
C      11.54       6.00       8.66
N      13.45      10.91      21.96
N      10.90      10.81      21.19
N       1.82       4.36      10.75
N       4.37       4.47       9.99
N       3.28       9.46       5.15
N       3.17      12.00       4.39
N      11.99       5.81      16.36
N      12.10       3.27      15.59
N       9.46       3.28       6.05
N      12.00       3.17       6.82
N       5.81      11.99      17.25
N       3.27      12.10      18.02
N       4.36       1.82       0.45
N       4.47       4.37       1.22
N      10.91      13.45      11.65
N      10.81      10.90      12.42
O       2.19      11.13       0.44
O       1.85      10.08       2.43
O       6.30      10.96      22.03
O       6.91      10.89      19.84
O       4.81      11.38       2.01
O       6.32      11.07       3.64
O      13.08       4.14      11.64
O      13.42       5.19      13.64
O       8.97       4.31      10.83
O       8.36       4.38       8.64
O      10.46       3.89      13.22
O       8.95       4.20      14.85
O       3.49       5.44       6.04
O       2.44       5.78       8.04
O       3.32       1.34       5.23
O       3.25       0.72       3.04
O       3.75       2.83       7.61
O       3.43       1.31       9.24
O      11.78       9.83      17.24
O      12.83       9.49      19.24
O      11.95      13.93      16.43
O      12.02      14.55      14.24
O      11.52      12.45      18.82
O      11.84      13.96      20.45
O       5.44       3.49       5.17
O       5.78       2.44       3.17
O       1.34       3.32       5.97
O       0.72       3.25       8.17
O       2.83       3.75       3.59
O       1.31       3.43       1.96
O       9.83      11.78      16.37
O       9.49      12.83      14.37
O      13.93      11.95      17.18
O      14.55      12.02      19.37
O      12.45      11.52      14.79
O      13.96      11.84      13.16
O       4.14      13.08      21.97
O       5.19      13.42      19.97
O       4.31       8.97       0.37
O       4.38       8.36       2.56
O       3.89      10.46      20.39
O       4.20       8.95      18.76
O      11.13       2.19      10.77
O      10.08       1.85       8.77
O      10.96       6.30      11.58
O      10.89       6.91      13.77
O      11.38       4.81       9.19
O      11.07       6.32       7.56
