106

Zn      -2.47       8.48       0.77
Zn       8.27       0.67      14.52
Zn       8.80      12.30       8.13
Zn      -2.20      -3.38       8.03
Zn      -2.32       8.29      15.01
Zn       8.76       0.39       1.24
H      12.27      -3.69      10.56
H      -5.02      13.39       5.14
H       6.03      15.43       2.99
H      -0.53      -6.64      14.05
H       5.10      13.42       5.81
H       0.31      -4.88      11.01
H      13.31      -2.27       5.08
H      -7.63      10.55      11.58
H      -4.65      -1.26      11.17
H      11.79      10.96       5.17
H      -4.31       4.27      14.33
H      11.72       3.59       1.59
H      -6.48       6.10      15.53
H       6.07      -5.84      14.39
H      -5.94       2.46      14.61
H      13.38       5.45       1.36
H      -5.54      -0.18      15.08
H      -5.03       0.32      13.43
H      -3.96      -0.71      14.43
H      12.52       8.28       2.45
H      11.81       9.46       1.29
H      10.87       8.94       2.73
H     -10.32       4.53      14.84
H      -3.13      13.40       0.74
H      -9.69       6.08      15.51
H       5.32      -3.29      12.06
H       6.53      -2.05      12.51
H       6.97      -3.79      12.55
C      -8.50       2.39      14.92
C       7.26      -1.67      15.18
C      -7.65       3.62      14.84
C       6.47      -2.94      15.11
C       7.74      13.97       6.36
C      -8.09      12.06      10.04
C      -4.13      -2.87       9.75
C      -7.33      12.67       6.40
C       1.38      -7.47      14.74
C       4.30      16.53       2.35
C      -4.46       6.80      15.28
C       4.87      -7.21      15.59
C       4.61      15.10       4.46
C       0.89      -6.31      12.55
C       5.02      15.68       3.32
C       0.52      -6.79      13.76
C       5.50      14.31       5.30
C      -0.01      -5.77      11.54
C       6.78      14.68       5.50
C      -7.30      11.50      11.15
C      -7.86      -1.16      14.20
C      -4.25      10.03       1.95
C      12.54      -2.78      11.09
C      -5.40      12.41       4.83
C      -4.99      -2.21      10.75
C      -6.53      11.95       5.41
C      11.57      -2.27      12.03
C      -4.65      11.71       3.82
C      -6.85      -1.69      13.23
C      -5.08      10.68       3.03
C      -5.32       4.54      14.67
C      12.14       3.83       0.61
C      -5.52       5.80      15.12
C       5.60      -5.95      15.37
C      -6.30       3.49      14.70
C      12.86       5.08       0.48
C      -5.00      -0.48      14.18
C      11.87       9.16       2.34
C      -9.54       5.00      15.45
C       6.17      -3.06      12.71
Br       9.78      -2.66      11.52
Br      -2.87      12.36       3.53
Br       8.97      -2.68       5.10
Br       2.71      -6.25      11.96
O      -8.12       1.47      15.71
O       6.95      -0.73      14.36
O       7.50       1.53       0.27
O       4.72      16.43       1.15
O      -3.39       6.74      14.55
O      10.46       1.56       0.84
O       1.74      16.53       0.45
O       5.11      -8.17      14.76
O       9.16       2.35      14.18
O      14.60       7.25       0.33
O      -7.59      -1.35      15.45
O      14.10      10.23       0.76
O       9.85      -0.54      13.76
O      -3.29       9.28       2.33
O       7.44      12.79       6.81
O      -1.59      -4.70       9.55
O      14.97      -3.27       6.62
O      -9.10      11.35       9.63
O      14.26      -4.04       9.38
O      -7.02      13.88       6.76
O      -3.11      -2.21       9.31
O      10.37      12.03       6.85
O      -3.82       9.69      14.31
O       9.51      -0.57       2.76
O      -5.54      -1.70      13.63
O      12.35      10.25       3.16
O      -8.24       4.84      14.83
O       5.65      -3.18      14.05
