144

Zn      -9.10       1.85      12.04
Zn       7.66      11.60       3.05
Zn      -7.52      -0.93      12.02
Zn      -7.48      11.65       3.14
Zn       9.22       0.02       9.42
Zn       9.24       8.88       3.12
Zn      -9.07      10.76       5.73
Zn       7.64      -0.95      12.01
H      -9.23       7.56       8.52
H       6.62      -1.51       6.56
H      11.68       6.81       0.52
H      11.65      -1.73       6.57
H       6.64       6.63       0.73
H       4.42      10.33       0.73
H       4.38      -2.71      10.05
H      -4.17      10.27       0.92
H      -8.96       5.55       9.94
H      -4.23      -2.59       9.98
H      -6.46       3.98      14.37
H      -6.43      12.26       8.55
H     -11.58       3.87      14.58
H     -11.59      12.43       8.44
H       0.84      11.62      11.46
H       0.90       9.84      11.56
H     -15.11      11.69      10.90
H       3.37       9.93      11.05
H       1.75       9.66       9.12
H       3.16      10.61       8.63
H       1.62      11.42       8.97
H       2.44       8.06      12.74
H       0.74       7.80      13.22
H       3.15       6.34      14.43
H       1.47       6.09      14.88
H       0.96       5.23      12.56
H       2.26       4.29      13.31
H       2.64       5.51      12.07
H      -0.68       3.74       0.34
H      -0.71       3.05       1.99
H      15.28       4.28       0.49
H       9.57       5.66       6.13
H      -3.18       3.56       2.11
H      -1.55       5.29       2.98
H      -2.97       6.07       2.26
H      -1.45       6.01       1.36
H      -2.27       1.35       3.29
H      -0.57       0.79       3.39
H      -3.00      -0.81       4.35
H      -1.32      -1.34       4.44
H      -0.77       0.55       6.01
H      -2.09      -0.45       6.66
H       8.94       3.92       7.37
H      -2.46       1.12       5.93
C       6.66      -1.44       9.27
C       4.49      -2.68       8.96
C      -2.52       4.11       1.42
C      -2.10       5.44       2.04
C      -1.62       0.45       3.32
C      -1.97      -0.45       4.49
C      -1.81       0.23       5.84
C       1.50      10.76      11.68
C       2.70      10.76      10.75
C       2.29      10.60       9.29
C       1.79       7.74      13.56
C       2.13       6.34      14.03
C      -4.33       9.28       0.52
C       1.99       5.29      12.93
C      -1.32       3.24       1.09
C      -4.39      -2.62       8.91
C       4.51       9.29       0.41
C      -5.58       3.42      14.70
C      -5.56      12.75       8.13
C     -12.52       3.38      14.82
C       6.67       9.17       1.70
C     -12.52      12.84       8.06
C      -5.46       2.08      14.27
C      -5.43      12.79       6.73
C       5.65       2.08      14.30
C       5.65      12.79       6.66
C      11.75      -1.50       9.27
C     -17.31      10.78      14.04
C     -17.31       9.64      14.86
C      17.48       1.02       0.29
C      17.47      -0.14       1.10
C      -6.58       9.25       1.66
C      -9.08      14.83       0.83
C      -9.12      -4.17      14.31
C      -6.53       1.49      13.41
C      -6.49      12.16       5.89
C     -11.65       1.46      13.47
C       6.72      12.19       5.80
C      -9.12      -2.95      13.44
C      -9.08      13.61       1.69
C       9.19       2.96       9.30
C      -9.02       7.81       5.86
C      -9.11       6.59       8.03
C      -9.09       5.41       8.87
C      -8.96       6.58       6.69
C       9.12       4.14       8.42
C      -4.33       1.37      14.70
C      -4.30      13.43       6.20
C       4.44       1.45      14.61
C       4.45      13.31       6.16
C       5.78       7.22       0.42
C       5.75      -2.00       7.01
C      12.61       7.33       0.30
C      12.57      -2.14       6.99
C       5.63       8.55       0.83
C       5.61      -2.05       8.40
C      -5.53       8.61       0.81
C      12.79      -2.10       8.37
O      -9.13       0.00      11.38
O       7.66       8.43       2.03
O      10.81      -0.87       8.69
O      10.77       8.54       1.93
O      -7.57       2.22      13.23
O      -7.52      11.71       6.50
O     -10.74       2.25      13.05
O     -10.66      11.68       6.43
O      -9.10      10.72       3.77
O       6.65       0.21      13.25
O       6.57      12.25       4.54
O      -6.33       0.34      12.92
O      -6.29      12.11       4.64
O      -6.48      -1.69      10.52
O      -6.37      10.46       2.03
O       6.44      -1.45      10.53
O       6.48      10.38       2.05
O       8.13      -2.62      12.92
O       8.21      12.92       1.71
O      -8.01      -2.35      13.28
O      -8.01      13.35       2.33
O       9.11       1.83       8.70
O       9.37       7.60       4.60
O      -9.04       3.14      10.56
O       7.69      -0.98       8.69
O      -9.10       8.93       6.46
O     -16.38      10.83      13.03
O     -16.40       8.63      14.69
O      16.55       1.98       0.57
O      16.56      -0.31       2.11
F      -4.14       0.08      14.35
F      -4.10      13.53       4.86
F       4.15       0.21      14.12
F       4.17      13.29       4.84
