144

Co       4.39       7.72       0.47
Co       3.73       0.61       9.87
Co       1.32       6.51      20.22
Co       1.98      13.63      10.81
H       0.74      10.77       7.61
H       7.38       3.65       2.73
H       4.97       3.46      13.08
H      -1.67      10.58      17.95
H       0.60       9.48       5.45
H       7.51       2.36       4.90
H       5.10       4.75      15.24
H      -1.80      11.87      15.79
H       3.21      12.36       3.60
H       4.91       5.25       6.75
H       2.50       1.87      17.09
H       0.80       8.99      13.94
H       3.40      13.59       5.78
H       4.72       6.48       4.56
H       2.31       0.64      14.91
H       0.99       7.76      16.12
H       6.52      11.34       1.90
H       1.60       4.22       8.44
H      -0.81       2.90      18.78
H       4.11      10.01      12.25
H       8.18      12.81       3.06
H      -0.06       5.69       7.28
H      -2.47       1.43      17.62
H       5.77       8.54      13.41
H       0.01      12.11       3.24
H       8.11       4.99       7.10
H       5.70       2.13      17.45
H      -2.40       9.24      13.58
H       9.62       8.50       1.04
H      -1.51       1.38       9.30
H      -3.92       5.73      19.65
H       7.22      12.85      11.38
H       5.07       8.61       3.37
H       3.05       1.49       6.98
H       0.64       5.63      17.32
H       2.66      12.74      13.71
H       4.13       9.20       4.78
H       3.99       2.09       5.57
H       1.58       5.03      15.91
H       1.72      12.14      15.12
H       4.92      10.35       3.68
H       3.20       3.23       6.66
H       0.79       3.88      17.00
H       2.51      11.00      14.03
C       2.31      12.93       8.13
C       5.81       5.82       2.22
C       3.40       1.30      12.56
C      -0.10       8.42      18.47
C       2.10      12.24       6.82
C       6.02       5.12       3.52
C       3.61       2.00      13.87
C      -0.31       9.11      17.16
C       1.28      11.10       6.72
C       6.84       3.99       3.62
C       4.43       3.13      13.96
C      -1.13      10.25      17.07
C       1.20      10.39       5.53
C       6.92       3.28       4.82
C       4.51       3.84      15.16
C      -1.21      10.95      15.87
C       1.92      10.85       4.42
C       6.20       3.73       5.93
C       3.79       3.39      16.27
C      -0.49      10.50      14.76
C       2.68      12.02       4.48
C       5.44       4.90       5.86
C       3.03       2.21      16.20
C       0.27       9.33      14.83
C       2.77      12.70       5.69
C       5.35       5.59       4.66
C       2.94       1.53      15.00
C       0.36       8.64      16.03
C       6.98       8.92       0.77
C       1.14       1.80       9.57
C      -1.27       5.31      19.92
C       4.57      12.43      11.11
C       7.98       9.84       1.40
C       0.14       2.72       8.94
C      -2.27       4.40      19.28
C       5.57      11.51      11.75
C       7.56      11.05       1.98
C       0.55       3.93       8.36
C      -1.86       3.19      18.71
C       5.16      10.30      12.32
C       8.49      11.86       2.63
C      -0.37       4.74       7.71
C      -2.78       2.37      18.06
C       6.08       9.49      12.97
C       9.83      11.46       2.73
C      -1.71       4.35       7.61
C      -4.12       2.77      17.96
C       7.42       9.88      13.07
C      -0.28      10.25       2.16
C       8.40       3.13       8.18
C       5.99       3.99      18.53
C      -2.69      11.10      12.50
C       9.31       9.44       1.49
C      -1.20       2.33       8.86
C      -3.61       4.79      19.20
C       6.91      11.90      11.83
C       1.10       9.78       2.22
C       7.01       2.66       8.12
C       4.60       4.45      18.46
C      -1.31      11.57      12.57
C       3.17       9.39       2.88
C       4.95       2.28       7.46
C       2.53       4.84      17.80
C       0.76      11.95      13.23
C       4.39       9.39       3.73
C       3.73       2.27       6.62
C       1.32       4.85      16.96
C       1.98      11.96      14.07
N       2.96       8.76       1.73
N       5.16       1.65       8.61
N       2.75       5.47      18.95
N       0.55      12.58      12.08
N       1.68       9.00       1.32
N       6.44       1.88       9.02
N       4.03       5.23      19.37
N      -0.73      12.35      11.66
N       2.02      10.06       3.23
N       6.10       2.94       7.11
N       3.69       4.18      17.46
N      -0.39      11.29      13.57
O       3.23      13.81       8.16
O       4.89       6.70       2.18
O       2.48       0.42      12.52
O       0.82       7.54      18.51
O       1.58      12.60       9.12
O       6.54       5.49       1.22
O       4.13       1.63      11.57
O      -0.83       8.75      19.46
O       5.74       9.15       0.98
O       2.38       2.04       9.36
O      -0.04       5.08      19.71
O       3.33      12.20      11.32
O       7.42       7.93       0.10
O       0.70       0.81      10.24
O      -1.71       6.31      20.59
O       5.01      13.42      10.44
