216

Cu      19.86      10.77      14.20
Cu      21.20      13.37      12.95
Cu      18.65      12.02      11.57
Cu      11.91      27.92       2.96
Cu      10.55      30.56       4.02
Cu      13.15      29.45       5.48
Cu       3.28       4.41      20.02
Cu       4.43       1.69      21.15
Cu       1.85       3.00      22.49
Cu      27.21      21.49      31.50
Cu      25.72      18.97      30.30
Cu      28.36      20.06      28.91
H      21.80      10.23      16.64
H      23.51      13.90      15.09
H      16.32       9.92      10.95
H      17.85       8.37      14.69
H      21.77      15.72      10.89
H      18.14      14.06       9.21
H       9.82      27.07       0.71
H       8.22      30.92       1.88
H      15.60      27.54       6.14
H      14.03      25.59       2.61
H       9.76      32.92       5.99
H      13.46      31.58       7.82
H       5.40       5.05      17.75
H       6.84       1.20      19.13
H      -0.41       5.16      23.14
H       1.36       6.90      19.59
H       4.87      -0.78      23.08
H       1.21       0.84      24.72
H      25.22      22.27      33.85
H      23.43      18.57      32.47
H      30.78      22.01      28.21
H      29.37      23.78      31.91
H      24.83      16.78      28.18
H      28.67      17.96      26.54
H       5.98      29.20      33.81
H       4.25      27.00      32.41
H       6.10      26.12      33.85
H       4.63      30.02      31.92
H      24.07       9.96      17.74
H      26.09       9.94      19.15
H      24.65      12.97      17.53
H      25.30      12.81      19.94
H      23.68      20.19       0.65
H      22.02      22.40       2.10
H      23.88      23.26       0.69
H      22.32      19.37       2.58
H       7.69       5.27      16.71
H       9.73       5.28      15.33
H       8.18       2.24      16.86
H       8.96       2.40      14.56
H      -1.27      24.79      32.00
H       0.73      26.21      31.80
H      -0.91      24.42      28.97
H      -0.24      26.77      28.93
H      15.24       7.57      10.74
H      13.98       5.45      10.84
H      15.57       7.08      13.76
H      13.25       6.30      13.70
H      31.69       7.60      23.50
H      30.46       9.75      23.46
H      31.99       8.17      20.49
H      29.63       8.91      20.62
H      16.39      24.60       2.45
H      18.42      23.20       2.63
H      16.87      25.10       5.45
H      17.52      22.74       5.54
H       0.21      32.38      25.68
H       0.34      30.35      27.11
H       3.25      31.95      25.49
H       3.10      31.46      27.88
H      22.03      16.74       8.47
H      21.88      18.07       6.38
H      19.00      16.47       8.02
H      19.10      18.86       7.41
H      14.16       0.01       8.89
H      13.78       2.04      10.26
H      11.13       0.23       8.41
H      10.99       0.84      10.77
H      28.58      15.50      25.53
H      26.34      14.27      23.74
H      25.50      15.68      25.59
H      29.32      13.55      24.13
C      22.07      11.12      16.08
C      23.10      12.05      16.32
C      22.93      13.00      15.30
C      16.87       9.70      11.86
C      16.66       8.68      12.80
C      17.64       8.92      13.78
C      20.89      15.14      10.63
C      19.97      15.33       9.59
C      19.03      14.30       9.79
C       9.59      28.02       1.17
C       8.57      28.94       0.85
C       8.79      30.01       1.74
C      15.04      27.22       5.27
C      15.29      26.15       4.40
C      14.26      26.24       3.45
C      10.69      32.43       6.27
C      11.56      32.72       7.33
C      12.59      31.76       7.20
C       5.59       4.11      18.26
C       6.60       3.15      18.01
C       6.32       2.14      18.95
C       0.19       5.42      22.27
C       0.06       6.51      21.39
C       1.08       6.30      20.45
C       3.98      -0.21      23.32
C       3.02      -0.45      24.32
C       2.09       0.60      24.15
C      24.94      21.35      33.34
C      23.89      20.46      33.62
C      24.04      19.44      32.66
C      30.27      22.28      29.13
C      30.55      23.32      30.04
C      29.56      23.17      31.03
C      25.79      17.23      27.94
C      26.69      16.93      26.91
C      27.77      17.81      27.13
C       3.18      28.90      30.78
C       2.25      29.75      28.88
C       1.41      27.84      29.81
C      26.97      11.76      20.84
C      28.82      10.66      21.60
C      28.12      12.56      22.64
C      20.91      20.54       3.72
C      19.98      19.75       5.64
C      19.15      21.64       4.66
C      10.61       3.44      13.64
C      11.69       2.60      11.81
C      12.40       4.54      12.77
C       6.34      27.14      34.16
C       5.69      28.17      33.56
C       4.66      28.00      32.58
C       4.19      29.03      31.82
C      24.12      12.03      17.34
C      24.51      10.92      18.03
C      25.53      10.88      19.04
C      25.87      11.88      19.89
C      24.09      22.25       0.34
C      23.42      21.22       0.92
C      22.40      21.39       1.92
C      21.91      20.38       2.67
C       7.67       3.19      17.05
C       8.12       4.30      16.42
C       9.17       4.34      15.44
C       9.52       3.33      14.60
C      -1.37      24.29      29.95
C      -0.89      25.01      30.99
C       0.13      26.03      30.90
C       0.39      26.81      29.82
C      15.70       7.60      12.80
C      15.02       7.14      11.72
C      14.08       6.04      11.75
C      13.30       5.69      12.80
C      -0.86       7.62      21.43
C      31.46       8.06      22.53
C      30.53       9.16      22.54
C      29.71       9.51      21.52
C      16.36      25.18       4.48
C      16.81      24.42       3.45
C      17.84      23.42       3.54
C      18.13      22.67       4.64
C       2.29      32.45      25.30
C       1.19      31.99      25.96
C       1.22      30.98      26.99
C       2.24      30.78      27.86
C      19.96      16.31       8.53
C      21.04      16.99       8.07
C      21.00      17.97       7.01
C      19.96      18.80       6.75
C      12.13      -0.19       8.31
C      13.13       0.34       9.07
C      12.94       1.36      10.07
C      11.83       1.54      10.82
C      26.53      15.95      25.86
C      27.55      15.31      25.22
C      27.34      14.36      24.16
C      28.32      13.55      23.69
N      21.90      12.66      14.51
N      21.36      11.49      15.00
N      18.38       9.99      13.44
N      17.89      10.48      12.25
N      19.37      13.56      10.86
N      20.53      14.09      11.39
N       9.86      29.74       2.52
N      10.36      28.51       2.16
N      13.47      27.29       3.73
N      13.96      27.91       4.86
N      12.34      30.97       6.13
N      11.16      31.39       5.55
N       5.25       2.48      19.70
N       4.80       3.70      19.26
N       1.77       5.18      20.75
N       1.20       4.62      21.88
N       2.48       1.39      23.13
N       3.65       0.88      22.61
N      25.10      19.72      31.87
N      25.67      20.89      32.30
N      28.76      22.13      30.73
N      29.20      21.57      29.55
N      27.52      18.58      28.21
N      26.30      18.21      28.73
N       3.18      29.88      29.85
N       1.34      28.75      28.82
N       2.34      27.85      30.80
N      27.82      10.72      20.69
N      29.03      11.58      22.57
N      27.06      12.70      21.80
N      20.89      19.58       4.66
N      19.07      20.75       5.68
N      20.07      21.60       3.68
N      10.68       2.46      12.70
N      12.56       3.62      11.79
N      11.45       4.49      13.72
