152

Zn       7.37       7.60       9.51
Zn       7.16      10.42       9.52
H      11.60       7.27       8.98
H      10.20      10.72       3.60
H       9.25       7.22      17.86
H       8.99      11.46       1.30
H      10.79       7.66       2.91
H      11.75       6.93       1.59
H      10.77       4.67       2.16
H      11.63       5.38       3.54
H       9.85       5.41       3.49
H      10.04      11.32      16.27
H      10.81      12.31      17.54
H       3.01      10.76      10.63
H       9.26      14.22      16.94
H      10.24      13.71      15.55
H       8.53      13.21      15.66
H       9.62       4.57      12.88
H      10.93       4.62      11.67
H      11.84       2.44      12.57
H      11.78       3.69      13.83
H      10.54       2.41      13.80
H       3.69      15.91       9.51
H       3.02      14.31       9.08
H       8.99       5.75      11.07
H       2.38      15.23       6.80
H       1.58      16.12       8.13
H       2.98      16.84       7.30
H       6.93      11.98      13.22
H       5.98      12.20      14.73
H       3.85      11.79      13.41
H       4.76      13.17      12.75
H       4.83      11.58      11.93
H       7.11       5.88       5.67
H       7.02       5.91       3.88
H       5.36      12.35       8.19
H       5.34       4.31       4.89
H       4.58       5.67       5.75
H       4.55       5.62       3.97
H       5.83       8.94      17.60
H       4.92       9.46      16.15
H       4.28      11.59      17.33
H       3.75      10.18      18.27
H       5.21      11.08      18.76
H       5.96       9.15       1.31
H       5.17       8.36       2.70
H       8.26       1.16       7.56
H       5.01       6.21       1.40
H       4.19       7.54       0.53
H       5.81       6.99       0.01
H       6.17      16.85      11.83
H       6.37      16.92       7.52
H       8.04       1.09      11.87
H      10.39       8.08      15.76
C       7.38       9.08       6.95
C       8.86      10.03       5.13
C       7.95       8.98      13.55
C       7.82       9.18       5.51
C       9.15       8.16      18.42
C       9.17      10.54       0.75
C       9.51       8.15       0.69
C       8.89      10.55      18.48
C       9.21       9.32       1.43
C       8.95       9.36      17.72
C       8.46       5.02      10.46
C       7.60       8.89      12.09
C       5.94      13.03       8.82
C       8.67       3.64      10.56
C       5.68      14.40       8.82
C       4.69       8.88       9.77
C       9.85       9.23       9.45
C       7.94       2.76       9.71
C       6.46      15.25       9.65
C       7.03       3.36       8.84
C       7.45      14.64      10.41
C       6.87       4.74       8.81
C       7.48       9.88      15.77
C       7.65      13.26      10.34
C       8.25       0.61       8.50
C       6.17      17.40      10.89
C       6.27      17.44       8.47
C       8.13       0.57      10.91
C       6.28      16.72       9.67
C       8.12       1.30       9.71
C       3.21       8.73       9.94
C      11.35       9.34       9.52
C       2.47       9.85      10.38
C       7.71       8.41       3.20
C      12.11       8.19       9.27
C       1.10       9.80      10.46
C      13.48       8.21       9.40
C       0.37       8.64      10.12
C      14.18       9.38       9.78
C       1.12       7.51       9.76
C      13.40      10.54       9.99
C       2.51       7.55       9.66
C      12.01      10.52       9.87
C       7.14       9.74      14.41
C       8.66       9.30      16.28
C       7.26       8.36       4.53
C      10.82       6.83       2.18
C      10.76       5.49       2.88
C       9.87      12.15      16.97
C       9.45      13.40      16.24
C      10.31       3.95      12.29
C      11.17       3.07      13.17
C       3.46      15.24       8.67
C       2.55      15.90       7.66
C       5.99      11.71      13.74
C       8.79       9.25       2.85
C       4.78      12.08      12.91
C       6.47       6.13       4.80
C       5.15       5.39       4.85
C       5.48       9.81      17.04
C       4.63      10.72      17.90
C       5.80       8.18       1.82
C       5.17       7.17       0.89
C       9.47       8.54      15.41
C       9.36      10.07       3.84
C       9.09       8.38      14.09
N      -1.02       8.48      10.12
N      15.57       9.55       9.86
N       7.58       5.54       9.59
N       6.92      12.48       9.57
O       7.54       7.94       7.50
O       8.83      11.80      17.91
O       9.54       3.08      11.42
O       4.71      14.89       8.00
O       5.97      10.27      13.92
O       6.19       7.56       4.86
O       6.63      10.58      16.60
O       7.08       7.66       2.23
O       7.52      10.01      11.49
O       6.94      10.14       7.50
O       7.43       7.74      11.59
O       5.36       7.82       9.57
O       9.20      10.29       9.23
O       5.15      10.07       9.83
O       9.39       8.06       9.62
O       9.69       6.92       1.29
F       6.26       2.62       8.01
F      11.36      11.67      10.14
F       9.90       7.64      13.26
F       9.45      10.83       6.07
F       8.27      15.37      11.21
F       5.98       5.29       7.98
F       8.62      12.70      11.07
F      14.17       7.09       9.09
F       0.44      10.90      10.92
F       0.49       6.36       9.44
F      14.00      11.69      10.35
F       3.12       6.42       9.24
