154

Zn       3.94       7.86       8.76
Zn      -2.02      27.66       9.29
Zn      19.88      29.07      11.50
Zn      18.66      27.95       8.76
Zn      19.88       9.60       0.81
Zn       3.94      23.30      17.24
Zn      18.66      12.51       0.29
Zn      -2.02      12.22       0.81
H      26.96      17.92      18.48
H       4.03      19.96      14.77
H      26.96       9.70      13.97
H       4.03      11.74      10.26
H      -1.47      15.77       2.92
H      18.12      16.19       2.15
H      -1.47      23.98       7.43
H      18.12      24.40       6.66
H      16.66       8.01       2.92
H      14.99      11.92       2.15
H       8.83       5.54       7.43
H       7.15       9.45       6.66
H       7.15      24.22      14.77
H       8.83      25.68      18.48
H      14.99      26.69      10.26
H      16.66      28.15      13.97
C       6.62       7.06       7.83
C      22.20      27.37      12.20
C      27.40       9.28      11.32
C      17.20      27.86      11.32
C       1.62       7.54       6.95
C      20.23      25.63       7.83
C       3.59      20.38      17.41
C       1.62      25.00      16.53
C      17.20      10.40       1.75
C      20.23      14.54       1.75
C      22.20       9.92       2.63
C       6.62      24.52      17.41
C      24.61       8.15       5.85
C      -0.79       9.31       3.73
C      23.50       7.49       5.30
C       0.32       9.97       4.28
C      22.73       8.05       4.28
C       1.09       9.41       5.30
C      -0.79      26.77      13.31
C       0.79      25.60      15.43
C      22.73      26.98      14.67
C       1.09      25.39      14.07
C      23.50      26.42      15.69
C       0.32      25.95      13.04
C       3.59      19.07      16.69
C      27.15      17.89      17.41
C      27.16      16.69      16.72
C      27.40      16.59      15.33
C       3.83      17.81      14.67
C       3.84      19.04      15.31
C      27.40      15.36      14.66
C      27.40      14.29      14.07
C      27.40      13.06      13.40
C      27.16      11.84      14.07
C      27.15      10.62      13.42
C      27.40      10.59      12.04
C       3.83      11.77      11.33
C       3.83      12.97      12.01
C      -3.59      15.85       2.46
C      -2.39      16.33       3.01
C      -2.41      17.55       3.67
C      -3.59      18.32       3.82
C      19.06      17.78       3.25
C      19.04      16.57       2.58
C      20.23      19.55       4.50
C      20.23      20.62       5.08
C      20.23      21.85       5.76
C      -2.41      22.39       6.33
C      -2.39      23.60       7.00
C      20.23      24.32       7.11
C      19.04      23.84       6.57
C      19.06      22.62       5.91
C      15.95      10.00       2.46
C      15.85       8.72       3.01
C      14.68       8.37       3.67
C      13.59       9.26       3.82
C      13.75      10.54       3.25
C      14.90      10.93       2.58
C      12.42       8.89       4.50
C      11.40       8.57       5.08
C      10.23       8.20       5.76
C      10.06       6.92       6.33
C       8.92       6.53       7.00
C       7.87       7.45       7.12
C       7.97       8.74       6.57
C       9.14       9.08       5.91
C       7.87      24.91      16.69
C       7.97      24.68      15.31
C       9.14      25.05      14.67
C      10.23      25.65      15.33
C      10.06      25.86      16.72
C       8.92      25.50      17.41
C      11.40      26.03      14.66
C      12.42      26.35      14.07
C      13.59      26.72      13.40
C      13.75      26.51      12.01
C      14.90      26.87      11.33
C      15.95      27.46      12.04
C      15.85      27.69      13.42
C      14.68      27.32      14.07
O      -3.59      28.81       9.58
O       5.70       7.94       7.92
O      -1.26      27.11      11.01
O      27.16       8.24      12.02
O       6.58       5.87       8.30
O       3.83       9.31      10.07
O      21.21      28.09      12.56
O      18.12      28.40      12.02
O      25.08       6.40       7.37
O      17.24      27.62      10.07
O       2.60       8.23       7.37
O      -2.47      26.03       8.30
O      19.11      26.24       7.91
O       3.59      23.56      19.16
O      27.16      20.34      18.66
O       2.60      24.28      16.17
O      17.24      11.58       1.28
O       3.83      21.42      16.71
O      18.12       9.52       1.66
O      25.08      25.26      17.72
O      19.11      14.14       1.27
O      -1.26      11.06       2.21
O      -2.47      13.93       1.66
O      21.21       9.23       2.21
O       5.70      23.97      16.71
O       6.58      24.76      18.66
F      23.11       6.27       5.73
F       0.71      11.18       3.84
F      21.69       7.31       3.84
F       2.13      10.15       5.73
F      21.69      27.74      15.05
F       2.13      24.63      13.68
F      23.11      26.71      16.94
F       0.71      25.66      11.79
F       4.07      17.77      13.34
F      26.92      15.54      17.40
F       4.07      14.12      11.33
F      26.92      11.89      15.40
F      17.91      18.49       3.37
F      -1.27      18.03       4.21
F      17.91      22.14       5.37
F      -1.27      21.68       6.21
F      12.73      11.42       3.37
F      14.56       7.14       4.21
F       9.25      10.32       5.37
F      11.09       6.04       6.21
F      11.09      26.43      17.40
F       9.25      24.84      13.34
F      14.56      27.53      15.40
F      12.73      25.94      11.33
