124

Zn       5.13       7.65       9.77
Zn       5.02      10.46       9.80
H       0.72       9.94      11.91
H       3.44      12.56      11.15
H       4.56       3.01       7.78
H       6.67      15.06       8.40
H       5.76       3.06      11.94
H       3.42      15.07      11.27
H       4.76      13.28       5.92
H       2.63       5.69      13.31
H       7.05      12.77      13.60
H       6.74       5.09       6.13
H       5.50      12.65       1.43
H       9.42       8.01       7.93
H       3.50       5.61      17.87
H       6.73      12.25      18.06
H       6.04       5.34       1.78
H       8.91       1.91      11.73
H       0.96      16.32       8.75
H       1.46       1.78       7.95
H       9.20      16.53      10.79
H       3.50       9.37       1.28
H       7.28       8.52      18.29
H       3.04       9.28      18.44
H       7.75       8.61       1.13
H       4.59       5.51       7.84
H       6.55      12.55       8.42
H       5.76       5.57      11.81
C       4.97       9.16      12.41
C       5.88      13.16       9.03
C       5.51       4.95      10.95
C       4.13      13.16      10.56
C       4.83       3.53       8.70
C       5.94      14.54       9.03
C       5.51       3.56      11.01
C       4.12      14.55      10.61
C       5.17       2.83       9.86
C       5.05      15.26       9.83
C       6.35       0.66      10.22
C       5.34       9.12       7.16
C       3.90      17.44       9.41
C       4.04       0.63       9.49
C       6.17      17.46      10.28
C       5.04      16.74       9.84
C       5.18       1.35       9.87
C       7.63       9.15       9.95
C       2.52       8.84       9.77
C      10.00       8.36      11.02
C       0.14       9.61       8.81
C       0.00       7.66       9.84
C       4.41       9.19       0.70
C      10.15      10.31       9.99
C       0.25       9.53      11.02
C       9.91       8.44       8.81
C       1.04       8.84       9.85
C       9.11       9.13       9.98
C       5.11      10.25       4.91
C       4.18       8.20      14.59
C       5.83       9.98      14.63
C       6.07       8.03       5.02
C       5.24      10.23       3.51
C       6.37       8.69      18.87
C       4.27       8.09      15.99
C       5.86       9.92      16.03
C       6.09       7.97       3.61
C       5.66       9.07       2.85
C       5.10       8.96      16.72
C       5.52       9.14       5.67
C       4.99       9.12      13.91
C       4.47      11.45       5.57
C       3.18       7.42      13.79
C       6.73      10.93      13.87
C       3.99       9.11      18.95
C       6.74       6.95       5.82
C       4.86      11.46       2.74
C       3.42       7.06      16.68
C       6.75      10.89      16.76
C       6.59       6.72       2.94
C       7.63       1.44      10.42
C       2.81      16.66       8.73
C       2.74       1.37       9.28
C       7.32      16.71      10.88
C       6.79       8.76       0.62
C       5.16       8.90      18.20
C       5.63       9.00       1.37
C       4.84       4.92       8.72
N       5.19       5.61       9.82
N       4.98      12.49       9.78
Cl       9.41       7.55      12.43
Cl       0.74      10.40       7.39
Cl       0.36       5.97       9.77
Cl       9.80      12.01      10.08
O       5.07       8.03      11.84
O       5.29      12.53       5.56
O       2.29       7.96      13.15
O       3.36       6.08      13.85
O       7.63      10.57      13.14
O       6.41      12.23      14.11
O       7.76       7.12       6.46
O       6.15       5.73       5.67
O       3.79      12.05       2.84
O       5.85      11.87       1.91
O       2.21       6.97      16.55
O       5.36      10.24       7.75
O       4.15       6.22      17.45
O       7.95      11.00      16.57
O       6.06      11.67      17.64
O       7.72       6.27       3.06
O       5.62       6.12       2.20
O       8.17       2.05       9.52
O       8.08       1.39      11.70
O       3.00      15.97       7.75
O       1.59      16.82       9.31
O       2.16       1.95      10.17
O       5.16       7.98       7.69
O       2.31       1.30       7.99
O       7.21      15.92      11.80
O       8.51      17.01      10.29
O       4.85      10.30      11.88
O       7.11       7.99       9.84
O       3.06       9.99       9.72
O       3.12       7.72       9.74
O       7.03      10.26      10.01
O       3.33      11.46       5.98
