134

Zn       3.99      10.31      10.20
Zn      10.40       3.99      10.23
Zn       2.42      11.81       7.81
Zn      11.87       2.34       7.87
Zn       5.61      11.95       7.95
Zn      11.97       5.53       7.91
Zn       3.90      -2.44      10.18
Zn      -2.34       3.83      10.14
H       3.21      -2.02      16.77
H      -1.96       2.96      16.73
H       6.25      11.73       0.89
H      11.87       6.18       0.93
H       2.26      -3.46      17.17
H      -3.49       2.19      17.15
H       5.21      10.36       1.31
H      10.40       5.29       1.34
H       4.89      -5.99      17.13
H      -5.63       5.18      17.26
H       2.00      12.31       1.37
H      12.11       1.88       1.32
H       9.99       2.46       2.32
H       2.63      10.07       2.20
H      -5.65       2.52      15.88
H       2.26      -5.54      15.86
H       6.70      -4.42      15.41
H      -4.09       6.64      15.49
H       2.89      15.42       0.37
H      14.13       1.96       0.40
H       7.35      -0.86      17.90
H       7.44      14.86       0.03
H       5.19       0.20       0.14
H      13.75       5.32       3.56
C       4.13      11.89       5.42
C      11.93       3.97       5.43
C      -1.43       6.43       9.09
C       6.47      -1.45       9.17
C       1.46       9.34       9.08
C       9.37       1.45       9.14
C       4.01      -4.03      12.64
C       0.44       8.31       9.11
C       8.34       0.44       9.19
C      -3.87       3.99      12.65
C      -0.41       7.45       9.11
C       7.48      -0.41       9.20
C       4.01      -5.34      17.31
C      -5.14       4.19      17.34
C       2.78      11.78       0.80
C      11.60       2.71       0.80
C       3.23      -2.97      17.32
C      -2.88       3.09      17.30
C       5.25      11.31       0.74
C      11.33       5.23       0.77
C      11.97       4.00       3.99
C       4.18      11.98       3.98
C      -3.83       4.09      14.09
C       4.08      -4.00      14.08
C       4.31      -3.92      16.74
C      10.14       2.60       1.23
C       2.56      10.32       1.12
C      -6.10       3.27      16.56
C      -3.70       4.29      16.74
C       2.88      -6.11      16.59
C       4.18      12.27       1.34
C       6.84      -4.34      16.51
C      -3.58       6.86      16.45
C       3.10      14.58       1.05
C      14.37       2.79       1.11
C      12.20       4.07       1.33
C      13.69       4.17       0.77
C       4.39      13.73       0.77
C      -3.09       5.66      17.26
C       5.77      -3.52      17.25
C      12.12       4.05       2.78
C       4.19      12.18       2.79
C      -3.76       4.22      15.29
C       4.22      -3.96      15.29
C       0.35      -0.59       8.81
C      -0.50       0.27       8.81
C       7.52       8.33       8.99
C       8.39       7.48       8.96
C       6.51       9.36       9.02
C       9.43       6.47       8.97
C       1.39      -1.59       8.86
C      -1.50       1.32       8.86
S       6.13      -1.76      16.44
S      -1.24       5.75      16.54
S       5.63      14.74       1.78
S      14.76       5.44       1.68
O       3.97      11.89       9.03
O      11.60       2.87       5.97
O      -2.75       3.92      12.05
O       5.24      11.90       6.03
O      12.24       5.07       6.00
O       3.72      -2.92      12.07
O       9.20       2.67       0.47
O       2.27       9.47       0.29
O       8.62       3.42      16.65
O       2.74      -7.30      16.77
O       4.25      -5.15      12.09
O      -5.04       3.99      12.13
O       7.79      -4.85      17.08
O      -3.39       8.02      16.80
O       2.38      14.34       1.99
O      14.95       2.58       2.15
O       2.96      11.81       5.93
O       6.39      -2.09      15.07
O       5.09      -0.84      16.81
O       7.52      -1.28      17.01
O      -0.46       4.63      16.96
O      -1.50       6.01      15.15
O      -0.63       7.09      17.11
O       5.22      -1.12       3.14
O       6.97      14.24       1.52
O       5.46       0.22       1.14
O       0.19       5.20       1.32
O      14.16       6.74       1.42
O      -1.27       5.15       3.23
O      11.96       3.92       9.03
O       6.77      10.41       8.36
O      10.27       6.51       8.02
O       2.35      -1.34       9.67
O      -1.37       2.16       9.80
O       6.68      -2.38       8.33
O      -2.49       6.72       8.44
O       5.50      -1.32       9.98
O      -1.16       5.35       9.71
O       1.40      10.16       8.11
O      10.34       1.21       8.35
O       2.31       9.30      10.03
O       9.21       2.47       9.89
O       5.47       9.10       9.71
O       9.39       5.65       9.94
O       1.24      -2.61       8.11
O      -2.41       1.28       7.97
