132

Cu       1.70       0.00       0.59
Cu       5.10       6.58       9.37
Cu       5.10       0.00      19.33
Cu       1.70       6.58      10.55
H       2.66       1.28       5.62
H       6.06       5.30       4.34
H       4.14       7.85       4.34
H       0.74      11.88       5.62
H       4.14      11.88      14.30
H       0.74       7.85      15.59
H       2.66       5.30      15.59
H       6.06       1.28      14.30
H       1.72       2.35       7.66
H       5.12       4.23       2.31
H       5.08       8.93       2.31
H       1.68      10.81       7.66
H       5.08      10.81      12.27
H       1.68       8.93      17.62
H       1.72       4.23      17.62
H       5.12       2.35      12.27
H       6.10       2.91       7.76
H       2.70       3.67       2.20
H       0.70       9.49       2.20
H       4.10      10.25       7.76
H       0.70      10.25      12.16
H       4.10       9.49      17.72
H       6.10       3.67      17.72
H       2.70       2.91      12.16
H       4.63       2.43       5.82
H       1.23       4.15       4.14
H       2.17       9.01       4.14
H       5.57      10.72       5.82
H       2.17      10.72      14.10
H       5.57       9.01      15.78
H       4.63       4.15      15.78
H       1.23       2.43      14.10
H       5.57       1.41       3.76
H       2.17       5.17       6.20
H       1.23       7.98       6.20
H       4.63      11.75       3.76
H       1.23      11.75      16.16
H       4.63       7.98      13.72
H       5.57       5.17      13.72
H       2.17       1.41      16.16
H       0.36       2.32       0.98
H       3.76       4.26       8.98
H       6.44       8.90       8.98
H       3.04      10.84       0.98
H       6.44      10.84      18.94
H       3.04       8.90      10.95
H       0.36       4.26      10.95
H       3.76       2.32      18.94
C       1.30       0.63       3.34
C       4.70       5.95       6.62
C       5.50       7.21       6.62
C       2.10      12.53       3.34
C       5.50      12.53      16.58
C       2.10       7.21      13.31
C       1.30       5.95      13.31
C       4.70       0.63      16.58
C       0.78       1.26       4.57
C       4.18       5.32       5.40
C       6.02       7.84       5.40
C       2.62      11.90       4.57
C       6.02      11.90      15.36
C       2.62       7.84      14.53
C       0.78       5.32      14.53
C       4.18       1.26      15.36
C       1.60       1.52       5.67
C       5.00       5.06       4.29
C       5.20       8.10       4.29
C       1.80      11.63       5.67
C       5.20      11.63      14.25
C       1.80       8.10      15.63
C       1.60       5.06      15.63
C       5.00       1.52      14.25
C       1.07       2.12       6.81
C       4.47       4.46       3.15
C       5.73       8.69       3.15
C       2.33      11.04       6.81
C       5.73      11.04      13.11
C       2.33       8.69      16.78
C       1.07       4.46      16.78
C       4.47       2.12      13.11
C       6.51       2.43       6.87
C       3.11       4.15       3.09
C       0.29       9.01       3.09
C       3.69      10.72       6.87
C       0.29      10.72      13.05
C       3.69       9.01      16.83
C       6.51       4.15      16.83
C       3.11       2.43      13.05
C       5.68       2.16       5.78
C       2.28       4.41       4.18
C       1.12       8.74       4.18
C       4.52      10.99       5.78
C       1.12      10.99      14.15
C       4.52       8.74      15.74
C       5.69       4.41      15.74
C       2.28       2.16      14.15
C       6.21       1.59       4.62
C       2.81       4.99       5.34
C       0.59       8.17       5.34
C       3.99      11.57       4.62
C       0.59      11.57      15.30
C       3.99       8.17      14.59
C       6.21       4.99      14.59
C       2.81       1.59      15.30
N       1.09       1.09       2.14
N       4.49       5.49       7.82
N       5.71       7.67       7.82
N       2.31      12.07       2.14
N       5.71      12.07      17.78
N       2.31       7.67      12.11
N       1.09       5.49      12.11
N       4.49       1.09      17.78
Cl       0.81       1.49      19.06
Cl       4.21       5.09      10.83
Cl       5.99       8.06      10.83
Cl       2.59      11.67      19.06
Cl       5.99      11.67       0.87
Cl       2.59       8.06       9.10
Cl       0.81       5.09       9.10
Cl       4.21       1.49       0.87
O       0.44       2.27       1.99
O       3.84       4.31       7.97
O       6.36       8.85       7.97
O       2.96      10.88       1.99
O       6.36      10.88      17.94
O       2.96       8.85      11.95
O       0.44       4.31      11.95
O       3.84       2.27      17.94
