52

Cu       7.15       6.45       6.77
Si       3.02       6.48       6.74
H       4.95       4.75       7.55
H       4.23       2.40       7.56
H       8.16       1.36       6.01
H       6.18      11.52       7.62
H       9.31       8.17       5.86
H      10.01      10.52       5.81
H       4.99       7.41       5.08
H       4.29       7.55       2.73
H       8.15       5.87       1.65
H       6.11       6.93      11.89
H       9.36       5.62       8.44
H      10.07       5.51      10.79
C       5.63       3.97       7.22
C       5.24       2.65       7.23
C       6.13       1.66       6.78
C       7.41       2.07       6.36
C       7.70       3.42       6.39
C       5.77       0.29       6.75
C       8.51      12.62       6.73
C       8.15      11.25       6.71
C       6.91      10.82       7.22
C       6.63       9.46       7.21
C       8.64       8.93       6.23
C       9.02      10.26       6.21
C       5.67       7.08       4.30
C       5.28       7.16       2.97
C       6.16       6.72       1.96
C       7.41       6.22       2.36
C       7.69       6.17       3.72
C       5.81       6.76       0.59
C       8.51       6.19      12.93
C       8.15       6.22      11.57
C       6.87       6.63      11.17
C       6.58       6.66       9.81
C       8.67       5.90       9.23
C       9.06       5.83      10.56
N       6.85       4.38       6.79
N       7.46       8.52       6.75
N       6.86       6.57       4.69
N       7.44       6.33       8.84
F       4.76       6.65       6.91
F       9.54       6.30       6.57
F       3.03       5.24       7.95
F      11.27       7.71       5.53
F       3.28       5.31       5.54
F      11.02       7.64       7.94
F       8.92       3.80       6.00
F       5.47       9.06       7.72
F       8.87       5.67       4.09
F       5.35       7.04       9.45
