80

Zn       0.45      11.15      16.53
Zn       0.28       6.86       8.25
Zn       4.45       0.86       0.04
Zn       4.62       5.15       8.33
H       4.98      10.62       2.92
H       2.36       7.39      11.20
H      -0.09       1.39      13.66
H       2.54       4.61       5.37
H      -0.67       9.34       4.83
H       1.39       8.67      13.11
H       5.56       2.67      11.75
H       3.50       3.33       3.46
H       2.38       6.93       5.01
H       4.96      11.08      13.29
H       2.51       5.08      11.57
H      -0.07       0.92       3.28
H       1.41       8.22       3.10
H      -0.69       9.79      11.39
H       3.48       3.79      13.47
H       5.58       2.21       5.19
H       4.67      10.53       0.55
H       2.68       7.48       8.84
H       0.23       1.48      16.02
H       2.22       4.53       7.74
H       4.75      10.70      15.61
H       2.59       7.31       7.32
H       0.14       1.31       0.96
H       2.31       4.69       9.25
C       3.13       9.50       2.90
C       4.21       8.51      11.18
C       1.76       2.51      13.68
C       0.69       3.49       5.39
C       4.42       9.81       3.38
C       2.92       8.20      11.66
C       0.48       2.20      13.20
C       1.97       3.80       4.91
C       4.96       9.10       4.44
C       2.38       8.92      12.73
C      -0.06       2.91      12.13
C       2.51       3.09       3.85
C       4.22       8.06       5.04
C       3.12       9.95      13.32
C       0.67       3.95      11.54
C       1.78       2.06       3.25
C       2.95       7.74       4.55
C       4.39      10.27      12.83
C       1.95       4.27      12.03
C       0.50       1.74       3.74
C       2.40       8.45       3.48
C       4.94       9.56      11.77
C       2.49       3.55      13.09
C      -0.04       2.45       4.80
C       2.54      10.30       1.78
C       4.80       7.71      10.07
C       2.35       1.71      14.79
C       0.09       4.29       6.50
C       4.79       7.32       6.21
C       2.55      10.69      14.49
C       0.10       4.69      10.37
C       2.34       1.32       2.08
O       1.36      10.03       1.39
O      -0.64       7.98       9.68
O       3.53       1.98      15.18
O       5.53       4.02       6.89
O       3.28      11.23       1.29
O       4.06       6.78       9.57
O       1.62       0.78      15.29
O       0.83       5.22       7.00
O       4.04       6.43       6.74
O       3.30      11.58      15.03
O       0.86       5.58       9.83
O       1.59       0.42       1.54
O      -0.66       7.63       6.61
O       1.39      10.38      14.90
O       5.56       4.38       9.96
O       3.51       1.63       1.67
O      -1.36      10.29      16.36
O       2.08       7.72       8.07
O       6.25       1.72       0.21
O       2.81       4.28       8.50
