156

Al       5.40      19.21      21.66
Al       1.31       6.42       7.22
Al       2.04      19.24      21.66
Al       4.67       6.39       7.22
H       1.56       8.33      10.75
H       5.14      17.30      18.14
H       5.15      17.30      25.20
H       1.56       8.33       3.69
H       4.92       4.48       3.69
H       1.79      21.15      25.20
H       1.79      21.15      18.14
H       4.92       4.48      10.75
H       1.80       9.94      12.63
H       4.91      15.69      16.25
H       4.91      15.69      27.08
H       1.80       9.94       1.81
H       5.15       2.88       1.81
H       1.56      22.75      27.08
H       1.55      22.75      16.25
H       5.15       2.87      12.63
H       4.70      11.66      11.57
H       2.01      13.97      17.32
H       2.01      13.97      26.01
H       4.70      11.66       2.87
H       1.35       1.16       2.87
H       5.36      24.47      26.01
H       5.36      24.47      17.32
H       1.35       1.16      11.57
H       4.85      11.19      14.22
H       1.86      14.44      14.66
H       1.86      14.44      28.67
H       4.85      11.19       0.22
H       1.50       1.62       0.22
H       5.21      24.01      28.67
H       5.21      24.01      14.66
H       1.50       1.62      14.22
H       3.69      17.46      21.67
H       3.02       8.17       7.22
H       0.34      20.99      21.67
H       6.37       4.64       7.22
C       3.73      20.86      19.88
C       2.98       4.77       9.01
C       2.98       4.77       5.44
C       3.73      20.86      23.45
C       0.37      17.58      23.45
C       6.34       8.04       5.44
C       6.34       8.04       9.01
C       0.37      17.58      19.88
C       0.78       9.06      10.95
C       5.93      16.57      17.93
C       5.93      16.57      25.40
C       0.78       9.06       3.49
C       4.13       3.75       3.49
C       2.58      21.88      25.40
C       2.57      21.88      17.93
C       4.13       3.75      10.95
C       0.91       9.97      12.00
C       5.79      15.66      16.89
C       5.80      15.66      26.44
C       0.91       9.97       2.44
C       4.27       2.85       2.44
C       2.44      22.78      26.44
C       2.44      22.78      16.89
C       4.27       2.85      12.00
C       6.61      10.91      12.24
C       0.10      14.71      16.65
C       0.10      14.72      26.68
C       6.61      10.91       2.21
C       3.26       1.90       2.21
C       3.45      23.73      26.68
C       3.45      23.73      16.65
C       3.26       1.90      12.24
C       5.48      10.92      11.41
C       1.23      14.71      17.48
C       1.23      14.71      25.85
C       5.48      10.92       3.03
C       2.13       1.90       3.03
C       4.58      23.73      25.85
C       4.58      23.73      17.48
C       2.13       1.90      11.41
C       5.36      10.01      10.36
C       1.35      15.62      18.53
C       1.35      15.62      24.80
C       5.36      10.01       4.08
C       2.00       2.81       4.08
C       4.71      22.82      24.80
C       4.71      22.82      18.53
C       2.00       2.81      10.36
C       6.36       9.05      10.11
C       0.35      16.57      18.77
C       0.35      16.57      24.56
C       6.36       9.05       4.33
C       3.01       3.76       4.33
C       3.70      21.87      24.56
C       3.70      21.87      18.77
C       3.01       3.76      10.11
C       5.67      11.91      14.31
C       1.04      13.72      14.58
C       1.04      13.72      28.75
C       5.67      11.91       0.13
C       2.31       0.90       0.13
C       4.40      24.72      28.75
C       4.40      24.72      14.58
C       2.31       0.90      14.31
C       5.69      12.80      15.38
C       1.02      12.83      13.51
C       1.02      12.83       0.93
C       5.69      12.80      27.95
C       2.33       0.01      27.95
C       4.37      25.62       0.93
C       4.38      25.62      13.51
C       2.33       0.01      15.38
C       0.02      13.74      15.54
C       6.69      11.89      13.35
C       6.69      11.89       1.09
C       0.02      13.74      27.79
C       3.37      24.70      27.79
C       3.34       0.92       1.09
C       3.34       0.92      13.35
C       3.37      24.70      15.54
Br       3.81      10.23       9.27
Br       2.90      15.40      19.61
Br       2.90      15.40      23.72
Br       3.81      10.23       5.17
Br       0.45       2.58       5.17
Br       6.26      23.04      23.72
Br       6.26      23.04      19.61
Br       0.45       2.58       9.27
Br       4.31      12.63      16.69
Br       2.40      13.00      12.20
Br       2.40      13.00       2.24
Br       4.31      12.63      26.65
Br       0.96       0.19      26.65
Br       5.75      25.44       2.24
Br       5.75      25.44      12.20
Br       0.96       0.19      16.68
O       2.59      20.49      23.02
O       4.12       5.14       5.87
O       4.12       5.14       8.58
O       2.59      20.49      20.31
O       5.94      17.96      20.31
O       0.77       7.67       8.58
O       0.77       7.67       5.87
O       5.94      17.96      23.02
O       4.86      20.45      20.29
O       1.85       5.18       8.59
O       1.85       5.18       5.85
O       4.86      20.45      23.04
O       1.50      17.99      23.04
O       5.21       7.63       5.85
O       5.21       7.63       8.59
O       1.50      17.99      20.29
O       3.71      18.43      21.66
O       3.00       7.20       7.22
O       0.36      20.02      21.66
O       6.35       5.61       7.22
