56

Zn       5.20       5.52       5.43
Zn       7.80       4.85       5.81
H       7.46       0.69       6.54
H       6.62       9.40       7.61
H       5.36       0.76       7.76
H       7.92       4.95      10.13
H       5.05       5.46       1.11
H       4.86       5.37      10.03
H       8.07       4.81       1.21
H       2.69       4.40       6.46
H      10.31       6.10       4.89
H       2.82       6.59       4.52
H       8.12       9.51       3.59
H      10.20       3.83       6.74
H       5.24       1.22       3.49
H       3.75       1.16       4.42
H       5.61      10.01       6.30
H       9.17       9.14       7.02
H       9.61       8.77       5.35
H       7.39       0.43       4.80
H       5.10       9.58       4.11
H       5.89       9.95       2.56
H       6.00       8.31       3.25
H       2.85       1.87       6.38
H       2.94       1.32       8.07
H       3.90       2.72       7.55
C       6.87       5.10       3.03
C       5.54       1.16       5.65
C       4.67       0.78       6.90
C       6.82       0.30       5.74
C       7.06       5.05       1.56
C       6.04       5.25       0.69
C       5.89       5.24       9.68
C       6.91       5.09      10.55
C      10.68       5.30       5.56
C       2.32       5.17       5.76
C       7.15       7.72       5.63
C       6.09       5.24       8.21
C       5.87       2.65       5.64
C       7.27       9.83       4.21
C       4.77       0.76       4.37
C       6.65       9.96       6.66
C       8.99       9.43       5.97
C       7.51       9.20       5.63
C       5.99       9.38       3.49
C       3.53       1.74       7.24
N       9.81       4.55       6.12
N       3.20       5.89       5.17
O       5.79       5.61       3.47
O       7.83       4.63       3.74
O       5.92       7.41       5.78
O       8.09       6.87       5.46
O       5.03       5.23       7.49
O       7.29       5.26       7.77
O       4.98       3.45       5.22
O       7.03       2.99       6.05
