324

Zn      -2.01       4.22       8.18
Zn       9.40       2.34       2.80
Zn       8.90      10.37      13.49
Zn       2.01       1.11      23.46
Zn       5.37      -0.77      18.07
Zn       5.87       7.26      28.77
Zn       5.37      10.16       7.10
Zn       2.01      12.04      12.48
Zn       1.51       4.01       1.79
Zn       9.40       7.06      22.38
Zn      -2.02       8.94      27.76
Zn      -1.51       0.91      17.07
H       2.95       3.49       7.16
H       0.46       3.11       7.08
H      -0.24       6.21       9.73
H       2.22       6.72       9.93
H       8.56       7.58       9.13
H       9.63       9.13      10.81
H       6.24       9.11      13.19
H       5.00       7.65      11.58
H       5.25       3.69       5.45
H       6.56       2.67       3.61
H      10.08       4.43       4.94
H       8.91       5.48       6.89
H       5.53      13.65      15.70
H       7.09      11.66      15.59
H       7.85      12.31      11.57
H       6.34      14.33      11.52
H       9.93       1.53      11.53
H      10.45       3.29       9.79
H      -0.32       2.22       9.73
H      -0.69       0.43      11.46
H       9.55      -3.02      15.97
H       7.47      -2.86      17.40
H       6.57       0.89      15.91
H       8.62       0.89      14.44
H      11.82       0.39      22.44
H      -0.47       0.01      22.35
H       0.24       3.10      25.01
H      -2.23       3.61      25.21
H       6.21       4.48      24.41
H       5.14       6.02      26.09
H       8.53       6.00      28.47
H       9.77       4.54      26.86
H       9.52       0.59      20.73
H       8.20      -0.43      18.89
H       4.69       1.32      20.22
H       5.86       2.38      22.17
H      -5.53      16.75       0.42
H       7.69      14.76       0.30
H       6.93       9.21      26.84
H      -6.34      11.23      26.80
H       4.83      -1.57      26.81
H       4.31       0.19      25.07
H       0.31      -0.88      25.01
H       0.67      -2.67      26.74
H       5.22       0.08       0.69
H       7.30       0.24       2.13
H       8.20       3.99       0.64
H       6.14      -2.21      29.72
H      -4.43      10.89       8.12
H       7.85      11.27       8.20
H       7.14       8.17       5.55
H       9.61       7.66       5.35
H       1.17       6.80       6.14
H       2.24       5.25       4.47
H      -1.15       5.27       2.09
H      -2.39       6.73       3.70
H      -2.14      10.69       9.83
H      -0.82      11.71      11.67
H       2.70       9.95      10.34
H       1.52       8.90       8.38
H      12.91      -5.48      30.13
H      -0.31      -3.48      30.25
H       0.45       2.06       3.71
H      13.72       0.05       3.76
H       2.55      12.85       3.75
H       3.07      11.09       5.48
H       7.07      12.16       5.55
H       6.71      13.94       3.82
H       2.16      11.20      29.86
H       0.08      11.04      28.43
H      -0.82       7.28      29.92
H       1.25      13.49       0.84
H       4.43       7.78      23.39
H       6.92       8.16      23.48
H       7.63       5.06      20.83
H       5.16       4.56      20.63
H      -1.18       3.69      21.42
H      -2.25       2.15      19.75
H       1.14       2.17      17.37
H       2.38       3.62      18.98
H       2.13       7.58      25.11
H       0.82       8.60      26.95
H      -2.70       6.84      25.62
H      -1.53       5.79      23.66
H       1.85      -2.38      14.85
H       0.29      -0.38      14.97
H      -0.46      -1.04      18.99
H       1.04      -3.05      19.03
H      -2.55       9.74      19.03
H      -3.07       7.98      20.76
H       7.71       9.05      20.83
H       8.07      10.84      19.10
H      -2.17      14.30      14.59
H      -0.09      14.14      13.15
H       0.81      10.39      14.64
H      -1.24      10.38      16.12
C       6.04       6.59       9.26
C       6.20       5.23       7.45
C       4.23       5.42       8.55
C       2.78       5.13       8.57
C       2.28       4.09       7.76
C       0.91       3.88       7.72
C       0.51       5.62       9.20
C       1.87       5.90       9.30
C       6.69       7.50      10.23
C       8.01       7.92      10.01
C       8.61       8.76      10.94
C       6.71       8.75      12.27
C       6.03       7.94      11.38
C       6.98       4.66       6.33
C       6.32       3.87       5.38
C       7.05       3.31       4.35
C       9.01       4.30       5.09
C       8.35       4.89       6.17
C      12.35      -2.14      13.61
C      10.46      -1.10      14.26
C      11.72      -0.21      12.61
C       5.86      14.16      13.62
C       6.04      13.39      14.78
C       6.90      12.29      14.72
C       7.32      12.65      12.46
C       6.50      13.77      12.44
C      11.97       0.85      11.61
C      10.94       1.66      11.14
C      11.22       2.63      10.19
C      -1.31       2.03      10.15
C      13.26       1.04      11.10
C       9.24      -1.07      15.10
C       8.91      -2.15      15.93
C       7.77      -2.06      16.72
C       7.27       0.05      15.89
C       8.39       0.04      15.08
C       8.73       3.48      24.54
C       8.56       2.13      22.73
C      10.54       2.32      23.83
C      -2.78       2.02      23.85
C      -2.28       0.99      23.04
C      -0.91       0.77      22.99
C      -0.51       2.51      24.48
C      -1.87       2.79      24.58
C       8.08       4.39      25.51
C       6.76       4.81      25.29
C       6.16       5.65      26.21
C       8.06       5.65      27.55
C       8.74       4.83      26.66
C       7.79       1.56      21.60
C       8.45       0.76      20.66
C       7.72       0.20      19.63
C       5.76       1.20      20.37
C       6.42       1.78      21.45
C       2.40      -5.24      28.89
C       4.30      -4.21      29.54
C       3.04      -3.32      27.89
C      -5.86      11.05      28.90
C      -6.05      10.28      30.05
C       7.87       9.19      29.99
C       7.45       9.55      27.74
C      -6.51      10.67      27.72
C       2.79      -2.26      26.89
C       3.82      -1.44      26.42
C       3.54      -0.48      25.46
C       1.30      -1.07      25.43
C       1.50      -2.06      26.38
C       5.52      -4.18      30.38
C       5.86       0.95       0.66
C       7.00       1.04       1.45
C       7.50       3.15       0.61
C       6.37      -3.06      30.35
C      -1.35       7.79       6.01
C      -1.18       9.14       7.83
C      -3.16       8.96       6.73
C      10.16       9.25       6.71
C       9.66      10.28       7.51
C       8.29      10.50       7.56
C       7.90       8.76       6.08
C       9.26       8.48       5.97
C      -0.69       6.89       5.05
C       0.62       6.46       5.27
C       1.22       5.62       4.34
C      -0.67       5.62       3.01
C      -1.36       6.44       3.90
C      -0.41       9.72       8.95
C      -1.07      10.51       9.90
C      -0.33      11.07      10.93
C       1.62      10.08      10.19
C       0.97       9.49       9.11
C       4.98      16.52       1.67
C       3.08      15.48       1.01
C       4.34      14.59       2.66
C      13.25       0.22       1.65
C      13.43       0.99       0.50
C      -0.49       2.09       0.56
C      -0.07       1.72       2.82
C      13.89       0.61       2.84
C       4.59      13.53       3.66
C       3.56      12.72       4.13
C       3.84      11.75       5.09
C       6.08      12.35       5.13
C       5.88      13.33       4.18
C       1.86      15.45       0.18
C       1.52      10.32      29.90
C       0.38      10.24      29.11
C      -0.12       8.13      29.94
C       1.01      14.34       0.20
C       1.35       4.69      21.29
C       1.18       6.04      23.11
C       3.15       5.85      22.01
C       4.61       6.15      21.99
C       5.11       7.18      22.79
C       6.47       7.40      22.84
C       6.87       5.65      21.36
C       5.51       5.38      21.25
C       0.69       3.78      20.33
C      -0.63       3.36      20.54
C      -1.23       2.52      19.62
C       0.67       2.52      18.28
C       1.35       3.34      19.18
C       0.40       6.61      24.23
C       1.06       7.41      25.17
C       0.33       7.97      26.21
C      -1.63       6.97      25.46
C      -0.97       6.39      24.38
C      -4.97      13.41      16.95
C      -3.07      12.38      16.29
C      -4.34      11.48      17.94
C       1.52      -2.88      16.93
C       1.34      -2.12      15.78
C       0.49      -1.02      15.84
C       0.06      -1.38      18.09
C       0.88      -2.50      18.11
C      -4.59      10.42      18.94
C      -3.56       9.61      19.41
C      -3.84       8.65      20.37
C       8.69       9.24      20.41
C      -5.88      10.23      19.46
C      -1.86      12.35      15.46
C      -1.53      13.42      14.62
C      -0.39      13.34      13.83
C       0.12      11.23      14.66
C      -1.01      11.23      15.48
I      12.57       3.06       5.91
I      11.33       6.19       8.98
I       9.68       0.13       4.03
I      11.09       3.84       1.61
I       8.84       9.11      15.70
I      -3.86      11.43      12.30
I       2.20      -0.04      21.19
I       3.44       3.08      24.26
I       5.09      -2.98      19.31
I       3.68       0.73      16.90
I       5.94      12.21       0.42
I       3.86       8.33      27.58
I       5.19      11.31       9.37
I       3.94       8.19       6.29
I       2.29      14.25      11.25
I       3.70      10.54      13.66
I       1.44      -0.94      30.14
I       3.53       2.95       2.98
I      -5.19       8.21      24.64
I      -3.95       5.09      21.57
I      -2.29      11.15      26.53
I      -3.70       7.44      28.94
I      -1.46       2.17      14.86
I      11.24      -0.15      18.26
N       6.79       6.13       8.25
N       4.93       4.82       7.58
N       4.74       6.28       9.45
N       7.98       9.16      12.05
N       8.37       3.51       4.20
N       0.03       4.63       8.42
N      12.62      -1.20      12.69
N      10.59      -0.15      13.33
N      11.33      -2.10      14.47
N       7.53      11.94      13.59
N      12.46       2.81       9.69
N       6.97      -0.98      16.71
N       7.97       3.03      23.53
N       9.83       1.72      22.86
N      10.03       3.17      24.73
N       6.79       6.06      27.33
N       6.40       0.41      19.48
N      -0.04       1.52      23.70
N       2.14      -4.30      27.97
N       4.17      -3.25      28.61
N       3.43      -5.21      29.75
N       7.24       8.83      28.86
N       2.30      -0.30      24.97
N       7.81       2.12       1.43
N      -0.59       8.24       7.03
N      -2.45       9.56       7.69
N      -2.65       8.10       5.83
N       0.59       5.22       3.22
N       0.99      10.87      11.07
N       7.42       9.75       6.86
N       5.25      15.58       2.58
N       3.21      14.53       1.94
N       3.96      16.48       0.80
N       0.14       2.44       1.70
N       5.08      11.57       5.59
N      -0.42       9.16      29.12
N       0.59       5.14      22.31
N       2.45       6.45      22.97
N       2.64       5.00      21.10
N      -0.59       2.11      18.50
N      -0.99       7.76      26.35
N       7.35       6.64      22.14
N      -5.24      12.47      17.86
N      -3.21      11.42      17.22
N      -3.95      13.38      16.08
N      -0.15      -0.66      16.97
N      -5.08       8.47      20.87
N       0.42      12.26      13.85
