80

Al       4.23      21.47       7.44
Al       0.05      12.88       2.48
H       1.24      11.26       7.08
H       3.01      11.27       7.06
H       3.04       9.09       8.34
H       1.27       9.07       8.33
H       1.24      17.68       1.58
H       3.01      17.65       1.59
H       3.04       2.67       2.83
H       1.27       2.68       2.86
H       1.24      18.29      13.65
H       3.01      18.31      13.67
H       3.04      18.29      11.14
H       1.27      18.31      11.13
H       3.81       5.57       3.54
H       0.46       8.86       1.64
H       3.81      17.45       8.28
H       0.46      14.16       6.38
H       3.81       7.03      10.49
H       0.46      24.21      14.30
C       2.11      21.42       9.46
C       2.11       6.07       6.47
C       2.11      19.74       6.39
C       2.17      11.15       3.53
C       2.17      14.66       3.45
C       2.17      12.84       0.46
C       2.12       9.85       4.27
C       2.15       7.36       5.71
C       2.11       9.80       5.66
C       2.13       7.39       4.30
C       2.16       8.59       6.36
C       2.14       8.61       3.59
C       2.13      10.64       6.92
C       2.15       9.27       7.71
C       2.12      15.95       4.21
C       2.15      18.44       5.65
C       2.11      17.18       3.56
C       2.13      17.20       6.33
C       2.16      18.39       4.26
C       2.14      15.98       5.62
C       2.13      17.85       2.20
C       2.15       2.05       2.99
C       2.12      21.44      13.84
C       2.15      21.43      10.95
C       2.11      20.26      13.09
C       2.13      22.64      11.69
C       2.16      20.26      11.70
C       2.14      22.64      13.10
C       2.13      18.74      13.19
C       2.15      18.74      11.61
C       1.93       6.11       3.55
C       2.34       8.60       2.10
C       1.93      17.19       7.81
C       2.34      14.70       6.37
C       1.93       6.76      10.95
C       2.34      23.94      13.84
O       3.08      20.53       6.20
O       3.08      20.87       8.87
O       3.08       5.83       7.24
O       1.08      19.94       7.12
O       1.08       5.33       6.27
O       1.08      21.96       8.92
O       3.19      13.38       0.99
O       3.19      11.35       2.79
O       3.19      13.92       3.65
O       1.19      12.28       1.05
O       1.19      14.42       2.68
O       1.19      11.94       3.71
O       2.86       5.18       3.56
O       0.86       5.89       2.96
O       1.41       9.08       1.31
O       3.41       8.20       1.63
O       2.86      17.67       8.61
O       0.86      16.80       8.29
O       1.41      13.77       6.36
O       3.41      14.48       6.96
O       2.86       7.21      10.15
O       0.86       7.37      11.06
O       1.41      24.38      14.64
O       3.41      24.55      13.73
