226

Cd      -3.77      13.83       0.00
Cd       0.41      10.64       6.57
H      -6.97       6.09      12.27
H       2.14      -0.87       7.45
H      11.56       1.35       0.88
H       2.44       8.32       5.70
H      -5.52       5.67      10.29
H       1.36       0.42       9.42
H      10.11       1.77       2.85
H       3.23       7.03       3.72
H      -6.00       6.96       8.15
H       2.72       0.30      11.57
H      10.58       0.49       5.00
H       1.87       7.15       1.58
H       5.08       8.87      10.21
H       5.42      -2.34       9.51
H      -0.49      -1.42       2.94
H      -0.83       9.79       3.64
H       5.54       9.53       7.97
H       5.94      -1.72      11.75
H      -0.95      -2.08       5.18
H      -1.35       9.17       1.40
H       7.79      10.26       2.58
H      -2.31       7.02       4.00
H      -3.20      -2.82      10.57
H       6.89       0.43       9.15
H       3.75      10.55       4.03
H      -0.96       3.20       2.54
H       0.84      -3.10       9.12
H       5.55       4.25      10.61
H       4.44       9.47       6.13
H      12.16       3.58       0.44
H       0.15      -2.03       7.02
H      -7.57       3.87      12.71
H       7.21      11.93       1.36
H      -0.54       6.91       5.21
H      -2.62      -4.49      11.79
H       5.13       0.54       7.94
H       0.53       6.52      12.38
H       0.59       6.48       7.34
H       4.06       0.92       0.77
H       4.00       0.97       5.81
H       3.25      10.36       1.97
H      -1.01       2.67       4.61
H       1.34      -2.92      11.18
H       5.59       4.78       8.54
H      -4.80       9.50       3.96
H      -3.50       8.50       2.61
H       9.39      -2.05       9.19
H       8.09      -1.05      10.54
H       9.00       8.01       4.79
H       9.53       7.59       1.78
H      -4.41      -0.56       8.36
H      -4.95      -0.15      11.37
H      -5.07       9.48       5.72
H      10.89       8.24       0.85
H       9.66      -2.04       7.43
H      -6.30      -0.79      12.29
H      -4.02       5.34      11.88
H       0.64       1.78       7.84
H       8.61       2.10       1.26
H       3.94       5.67       5.31
H       1.40      11.73       0.43
H       0.80       1.24       6.15
H       3.19      -4.29      12.72
H       3.79       6.21       7.00
H      -4.12       3.83      12.82
H      -0.80       1.29       6.90
H       8.71       3.62       0.33
H       5.39       6.16       6.25
H      -0.57       7.90      11.20
H       2.20       5.78       8.53
H       5.15      -0.45       1.95
H       2.39       1.66       4.62
H      -3.40       6.39       9.12
H       1.50       2.65      10.61
H       7.99       1.05       4.03
H       3.09       4.80       2.54
H      -3.92       7.27       6.79
H       2.48       2.38      12.93
H       8.51       0.18       6.36
H       2.11       5.07       0.21
H      -2.49       9.09       5.85
H       9.83      10.63       0.72
H       7.07      -1.65       7.30
H      -5.25      -3.18      12.43
H      -0.22       9.27       9.32
H       3.43       6.48      10.40
H       4.81      -1.83       3.83
H       1.15       0.97       2.75
C      -7.15       6.61      11.33
C       2.69      -0.91       8.39
C      11.74       0.84       1.82
C       1.90       8.36       4.76
C      -6.34       6.39      10.22
C       2.26      -0.18       9.50
C      10.92       1.06       2.93
C       2.33       7.63       3.65
C      -6.59       7.09       9.05
C       3.01      -0.24      10.67
C      11.18       0.35       4.10
C       1.58       7.69       2.48
C       6.68       8.01       9.03
C       4.17      -1.02      10.69
C      -2.10      -0.57       4.12
C       0.42       8.47       2.45
C       5.92       8.17      10.19
C       4.53      -1.72       9.53
C      -1.33      -0.72       2.95
C       0.06       9.16       3.62
C       6.34       8.78       7.84
C       5.01      -1.15      11.88
C      -1.75      -1.34       5.31
C      -0.42       8.60       1.26
C       6.51       9.26       5.56
C      11.40       5.52       1.01
C      -1.92      -1.81       7.58
C      -6.81       1.93      12.14
C       7.46       9.49       4.54
C      -2.96       6.50       2.03
C      -2.87      -2.05       8.60
C       7.55       0.95      11.12
C       7.05      10.10       3.36
C      -2.26       6.26       3.22
C      -2.46      -2.65       9.79
C       6.85       1.19       9.93
C       5.71      10.48       3.13
C      -1.54       5.07       3.45
C      -1.12      -3.03      10.02
C       6.13       2.37       9.70
C       4.78      10.25       4.16
C      -1.52       4.12       2.41
C      -0.20      -2.80       8.99
C       6.11       3.33      10.74
C       5.17       9.65       5.35
C      12.14       4.34       1.22
C      -0.59      -2.21       7.80
C      -7.55       3.11      11.93
C       5.28      11.08       1.85
C      -0.85       4.82       4.73
C      -0.69      -3.64      11.30
C       5.44       2.63       8.42
C       6.18      11.80       1.04
C      -0.39       5.88       5.53
C      -1.59      -4.36      12.11
C       4.98       1.57       7.61
C      -0.20       5.98      12.99
C       0.26       5.63       6.73
C       4.79       1.47       0.16
C       4.33       1.81       6.41
C      -1.53       5.84      12.53
C       0.47       4.32       7.19
C       6.12       1.61       0.62
C       4.12       3.13       5.96
C       3.53      11.48       0.17
C      -0.00       3.23       6.41
C       1.06      -4.04      12.98
C       4.59       4.21       6.74
C       3.96      10.94       1.38
C      -0.63       3.51       5.19
C       0.63      -3.50      11.77
C       5.22       3.94       7.96
C       8.89       9.10       4.76
C      10.62       7.78       1.81
C      -4.31      -1.65       8.39
C      -6.03      -0.33      11.33
C      -3.87       4.90      12.87
C       0.17       1.81       6.85
C       8.46       2.55       0.28
C       4.42       5.64       6.29
C      -1.39       7.33      10.73
C       1.87       4.84       8.99
C       5.98       0.12       2.42
C       2.72       2.61       4.15
C      -1.78       7.78       9.39
C       2.40       4.58      10.33
C       6.37      -0.33       3.76
C       2.19       2.87       2.82
C      -2.83       7.20       8.66
C       2.12       3.41      11.06
C       7.42       0.24       4.49
C       2.46       4.03       2.09
C      -3.11       7.68       7.39
C       2.65       3.28      12.34
C       7.69      -0.23       5.76
C       1.93       4.17       0.81
C      -2.31       8.69       6.85
C       3.42       4.31      12.87
C       6.90      -1.24       6.30
C       1.17       3.14       0.27
C      -1.05       8.81       8.78
C       3.20       5.56      10.94
C       5.64      -1.36       4.37
C       1.39       1.89       2.21
N      -8.18       7.47      11.32
N       3.79      -1.68       8.40
N      12.77      -0.02       1.83
N       0.80       9.13       4.74
N       6.93       8.58       6.71
N       4.66      -0.63      13.01
N      -2.34      -1.13       6.44
N      -0.07       8.08       0.14
N      -1.97       6.33      11.29
N       1.05       4.02       8.43
N       6.56       1.12       1.86
N       3.53       3.43       4.72
N      -1.29       9.24       7.53
N       3.69       5.44      12.19
N       5.88      -1.80       5.61
N       0.90       2.01       0.96
N      -1.62      11.96       1.67
N       1.81      -1.61       4.91
N       6.21      -4.51      11.48
N       2.78       9.06       8.24
O      -1.82      13.13       1.17
O       3.00      -1.49       5.40
O       6.41      -5.69      11.98
O       1.59       8.94       7.74
O      -0.46      11.65       2.02
O       1.20      -0.57       4.56
O       5.05      -4.20      11.13
O       3.38       8.01       8.59
O      -2.59      11.15       1.77
O      -2.48      11.08       4.80
O       7.18      -3.71      11.38
O       7.07      -3.63       8.34
