66

Zn       4.33      -1.03       9.26
Zn       8.86       7.88       0.85
H       4.56       6.11       0.49
H       0.03       0.73       9.62
H       3.05       3.06       8.42
H       7.58       3.79       1.69
H       1.30       3.07       8.79
H       5.83       3.78       1.33
H       1.49       0.91       0.34
H       6.02       5.94       9.78
H       3.90      -0.01       6.89
H       8.43       6.86       3.23
H       5.53       0.03       7.21
H       1.00       6.82       2.90
H       5.95       6.99       4.33
H       1.42      -0.14       5.78
H       5.67       7.25       2.02
H       1.14      -0.41       8.10
H       4.43       8.48       2.32
H       8.96      -1.63       7.79
H       4.22       7.04       6.70
H       8.76      -0.19       3.41
H       5.92       7.55       6.44
H       1.39      -0.70       3.68
H       4.27       5.45       8.29
H       8.80       1.40       1.83
H       1.68       5.53       1.05
H       6.21       1.32       9.07
C       2.29       3.38       9.15
C       6.82       3.47       0.96
C       2.70       3.90       0.12
C       7.23       2.95      10.00
C       1.97      -2.70      10.00
C       6.50       9.54       0.11
C       4.79       7.47       2.62
C       0.25      -0.63       7.50
C       4.87      -1.71       6.39
C       0.34       8.56       3.73
C       3.38       5.70       8.86
C       7.91       1.15       1.25
C       2.38       4.86       9.29
C       6.91       1.98       0.82
C       4.46       8.20       4.96
C       8.99      -1.35       5.16
C       3.64       6.51       2.28
C       8.17       0.33       7.83
C       2.55       5.40       0.39
C       7.08       1.45       9.72
N       3.70       5.98       1.05
N       8.23       0.87       9.07
N       1.48       5.63      10.02
N       6.01       1.21       0.09
N       3.12       6.98       9.31
N       7.65      -0.14       0.81
N       4.67      -0.56       7.28
N       0.14       7.41       2.83
N       5.13       7.49       4.02
N       0.60      -0.64       6.09
O       3.89       0.78       9.93
O       8.42       6.07       0.19
O       1.68       3.16       0.14
O       6.21       3.69       9.98
O       3.55      -0.57       4.72
O       8.08       7.42       5.39
O       2.70       6.33       3.09
O       7.23       0.51       7.03
