147

Al       4.20       6.95      12.06
Al       0.56      20.84      20.08
Al       3.86      20.85       4.03
H       2.30      12.83      22.23
H       2.33      36.87      20.11
H       2.24      12.79      17.93
H       1.47      17.20      21.91
H       1.31      14.73      21.93
H       3.44      14.58      18.19
H       3.27      39.47      23.72
H       1.22      34.97      23.99
H       1.17      36.20      21.85
H       1.17      36.20      18.43
H       3.33      10.24      14.37
H       3.38      11.56      16.47
H       2.02      12.84       1.89
H       2.00       9.10       4.00
H       2.09      12.80       6.19
H       2.92      17.17       2.18
H       3.04      14.70       2.17
H       0.93      14.62       5.94
H       1.04      11.68       0.39
H       3.19       7.22       0.13
H       3.19       8.45       2.28
H       3.17       8.44       5.69
H       1.01      10.25       9.75
H       0.93      11.56       7.65
H       2.24      22.98      12.08
H       2.28      26.68       9.89
H       2.30      26.72      14.19
H       1.45      21.08      16.01
H       1.29      22.29      13.87
H       3.44      25.60      15.62
H       3.13      22.22      10.29
H       0.92      24.31       6.37
H       1.03      25.55       8.50
H       1.16      28.47      10.17
H       3.37      31.09      13.74
H       3.43      28.61      13.84
C       2.21      32.68      11.99
C       2.21      35.70      13.87
C       2.17       7.95      10.26
C       2.56      18.79      20.03
C       2.56      21.85      21.87
C       2.56      21.91      18.33
C       1.86      21.88       2.25
C       1.85      18.79       4.04
C       1.88      21.85       5.81
C       2.26      38.66      21.32
C       2.29      12.28      21.29
C       2.32      12.98      20.08
C       2.29      12.26      18.88
C       2.27      38.64      18.88
C       2.28      37.96      20.11
C       1.91      16.61      21.10
C       1.83      15.23      21.12
C       2.37      14.46      20.07
C       2.98      15.14      19.00
C       3.02      16.53      18.97
C       2.51      17.29      20.03
C       2.79      38.50      23.76
C       2.36      23.94       0.87
C       1.83      22.65       0.96
C       1.68      35.95      23.92
C       1.66      36.65      22.71
C       2.24      37.92      22.61
C       1.66      36.62      17.55
C       1.64      35.88      16.37
C       2.22      36.39      15.19
C       2.84       9.86      15.27
C       2.86      10.61      16.44
C       2.26      37.88      17.61
C       2.05      10.88       2.79
C       2.03      12.28       2.83
C       2.01      12.99       4.04
C       2.04      12.26       5.24
C       2.04      10.86       5.24
C       2.04      10.19       4.01
C       2.47      16.60       3.00
C       2.53      15.21       2.99
C       1.98      14.47       4.05
C       1.40      15.16       5.12
C       1.38      16.55       5.14
C       1.89      17.29       4.06
C       1.54      10.72       0.35
C       2.00      23.91      23.24
C       2.55      22.63      23.16
C       2.71       8.20       0.20
C       2.70       8.89       1.41
C       2.09      10.15       1.51
C       2.68       8.85       6.57
C       2.71       8.11       7.76
C       2.13       8.63       8.93
C       1.49       9.88       8.85
C       1.46      10.61       7.68
C       2.06      10.11       6.51
C       2.21      24.74      10.83
C       2.26      24.07      12.06
C       2.32      24.76      13.28
C       2.32      26.17      13.25
C       2.29      26.87      12.04
C       2.25      26.14      10.84
C       1.89      22.07      15.92
C       1.82      22.75      14.71
C       2.37      24.04      14.57
C       2.97      24.62      15.69
C       3.01      23.96      16.91
C       2.50      22.66      17.03
C       2.61      22.69       9.46
C       2.49      21.97       8.27
C       1.92      22.56       7.13
C       1.41      23.86       7.23
C       1.48      24.56       8.43
C       2.11      23.99       9.56
C       1.66      29.03      10.96
C       1.64      30.42      10.90
C       2.23      31.19      11.93
C       2.87      30.50      12.97
C       2.89      29.11      13.03
C       2.28      28.35      12.02
Cl       3.71      17.31      17.59
Cl       3.00      24.72       2.28
Cl       0.92      34.30      16.46
Cl       0.71      17.36       6.51
Cl       1.37      24.68      21.83
Cl       3.44       6.55       7.67
Cl       3.70      24.75      18.29
Cl       3.07      20.34       8.22
Cl       0.90      31.12       9.51
O       1.25       8.24      11.10
O       1.25      33.29      11.41
O       1.25      34.89      13.63
O       3.14       7.16      10.49
O       3.14       8.21      13.05
O       3.14      33.25      12.65
O       1.63      22.12      19.17
O       1.63      19.40      19.43
O       1.62      21.01      21.69
O       3.52      21.09      18.49
O       3.51      22.07      21.07
O       3.53      19.33      20.66
O       0.92      21.05       5.60
O       0.91      22.10       3.07
O       0.90      19.35       3.41
O       2.81      22.12       4.99
O       2.80      19.40       4.64
O       2.81      21.05       2.42
