120

Zn      11.80       9.33       8.75
Zn      10.85       6.60       8.96
H      18.75      11.58       8.12
H       3.93       4.44       7.41
H      12.12      14.04      10.45
H      10.21       1.94       7.24
H      11.36      11.65      10.20
H      11.01       4.31       7.40
H      15.72       8.49       8.29
H       6.96       7.47       8.11
H      14.64       4.38       8.12
H       7.98      11.58       8.61
H      17.03       9.86       8.01
H       5.62       6.16       7.47
H       9.61      10.04       2.38
H      10.60       6.29      15.61
H      10.10       9.94       4.83
H      10.89       6.19      13.12
H      10.84       5.73       4.54
H      11.77      10.39      13.05
H      10.41       5.81       2.07
H      11.47      10.51      15.53
H      12.32      10.71       5.51
H      13.54      11.90       4.99
H      13.77      10.17       4.67
H      15.19      10.83       6.62
H      13.94       9.68       7.11
H       6.47       5.00      10.68
H       6.87       6.50      11.55
H       7.25       6.35       9.82
H       8.61       4.80      12.10
H       9.32       6.11      11.16
H      16.58      14.11       8.55
H      16.79      12.43       8.04
H      17.38      13.75       7.01
H      15.26      12.88       6.05
H      14.99      14.51       6.66
H       9.28       0.95      11.93
H       9.39       2.52      12.75
H       8.07       1.40      13.16
H       7.19       3.21      11.67
H       7.12       1.65      10.85
H       6.29      13.15       8.52
H      20.25      14.16       7.02
H      19.76      12.54       6.48
H       5.86      13.14       6.09
H       2.42       3.28       7.06
H       1.09       1.43       7.33
H      15.37       2.56       6.72
H      15.57       2.30       8.48
C      11.50       8.21      11.45
C      10.88       7.80       6.28
C      18.08       9.56       7.95
C       4.58       6.45       7.58
C      19.04      10.54       8.00
C       3.61       5.48       7.54
C       9.89       9.10       2.85
C      10.85       7.18      15.04
C      10.16       9.04       4.21
C      11.01       7.13      13.66
C      10.53       7.83       4.82
C      11.35       8.28      12.94
C      10.58       6.66       4.05
C      11.51       9.50      13.62
C      10.33       6.71       2.68
C      11.34       9.57      15.00
C      10.00       7.93       2.06
C      11.02       8.40      15.74
C       9.86       7.99       0.65
C      10.92       8.43      17.15
C      12.55      13.38       9.69
C       9.89       2.58       8.06
C       8.96       9.06       8.79
C      13.67       6.86       8.54
C      12.13      12.08       9.56
C      10.33       3.89       8.14
C      13.61      11.67       7.79
C       9.10       4.28      10.09
C      14.10      12.99       7.85
C       8.64       2.95      10.11
C      13.56      13.86       8.83
C       9.04       2.09       9.06
C      14.02      15.19       8.94
C       8.57       0.76       9.00
C       7.56       9.48       8.45
C      15.08       6.47       8.23
C       5.90      11.22       8.17
C      16.75       4.76       7.77
C       7.20      10.84       8.43
C      15.43       5.12       8.04
C       6.62       8.50       8.14
C      16.04       7.47       8.13
C       5.27       8.84       7.93
C      17.39       7.15       7.88
C       4.89      10.21       8.00
C      17.76       5.78       7.71
C       4.25       7.82       7.77
C      18.41       8.18       7.85
C      14.10      10.70       6.75
C      13.39      10.89       5.40
C       8.62       5.27      11.11
C       7.22       5.81      10.77
C      15.21      13.48       6.96
C      16.57      13.44       7.68
C       7.81       2.41      11.24
C       8.69       1.78      12.34
C      20.60      13.14       6.87
C      16.11       2.39       7.52
N      12.64      11.24       8.63
N       9.94       4.72       9.12
N       5.53      12.59       8.15
N      17.11       3.44       7.61
O      11.85       9.26      10.83
O      10.78       6.68       6.88
O      11.23       7.08      10.91
O      11.25       8.90       6.80
O       9.84       9.98       8.93
O      12.80       5.94       8.71
O       9.17       7.81       8.91
O      13.43       8.12       8.60
