108

Zn       6.72       8.62       7.83
Zn       6.59       5.37       7.82
H       7.13      11.51       3.61
H      12.39       3.20       9.38
H      13.27       1.72       8.99
H      13.87       2.66       6.72
H       0.21       3.76       8.01
H      12.96       4.14       7.09
H      11.45      12.47       7.07
H      10.59      11.03       7.69
H      13.05      12.26       9.04
H      12.25      10.74       9.48
H      12.86       9.80       7.18
H       7.47      13.02       2.71
H       0.09      10.26       8.10
H      13.70      11.31       6.80
H       7.23       1.75       3.05
H       6.65       3.13       4.04
H       4.78       3.53       2.51
H       5.08       2.00       1.66
H       7.06       4.37       1.70
H       5.96       4.01       0.36
H       7.25       2.87       0.78
H       5.18      11.07       2.09
H       5.61      12.49       1.13
H       7.86      11.43       0.59
H       6.52      10.37       0.11
H       7.43      10.03       1.59
H      10.79       2.78       7.54
H      11.70       1.32       7.05
C       6.68       6.72       5.29
C       8.80       6.25      14.78
C       7.93      11.42       8.07
C       6.30       2.58       6.74
C       6.43      11.41       6.27
C       8.10       2.61       8.23
C       6.68      12.77       5.97
C       8.49       1.29       7.88
C       8.35      12.74       7.79
C       6.65       1.31       6.22
C       7.57      13.46       6.85
C       6.44       6.64      10.37
C       7.66       0.62       6.94
C       6.09      13.56       4.91
C       9.62       0.55       8.40
C       9.47      13.43       8.40
C       6.08       0.67       5.07
C       9.18       7.09       7.83
C       4.18       7.50       7.91
C      10.61       7.00       7.89
C       2.74       7.46       8.00
C      11.84       6.99       7.97
C       6.37       6.68      14.72
C       1.52       7.30       8.03
C      13.17       7.04       8.02
C       0.19       7.15       8.04
C       7.59       6.56      12.60
C       5.51       7.13       3.09
C       6.39       6.60      11.89
C       6.70       6.88       3.78
C       5.16       6.63      12.57
C       7.92       6.83       3.10
C       5.11       6.69      14.00
C       6.72       7.06       0.96
C       7.98       6.98       1.68
C       6.68      12.30       2.98
C       6.02      11.69       1.76
C       7.02      10.83       0.97
C      11.44       1.97       7.90
C      12.69       2.54       8.55
C      13.53       3.32       7.54
C      11.23      11.88       7.98
C      12.51      11.40       8.63
C      13.39      10.65       7.62
C       7.60       6.45      14.01
C       6.33       2.31       3.37
C       5.57       2.85       2.17
C       6.51       3.56       1.20
C       5.50       7.30       1.68
C       3.91       6.89      14.79
C       9.18       6.90       0.91
C       4.33       7.57       0.90
I       9.33       7.12      11.53
I       4.37       3.32       6.39
I       4.88      10.39       5.28
I       8.96       3.54       9.91
I       3.75       6.77       4.20
I       3.54       6.97      11.26
I       9.53       6.08       4.25
I       1.96       6.28      14.22
I      11.04       7.68       1.57
I       2.86       8.93       1.61
I      10.38       5.01      14.09
I       8.40      10.57       9.93
N       7.00      10.78       7.32
N       7.02       3.21       7.68
O       6.75       7.81       5.91
O      10.73       1.17       8.89
O      10.53      12.75       8.92
O       5.46       1.39       4.09
O       6.34       5.49       9.82
O       6.61       7.75       9.82
O       6.60       5.54       5.77
O       8.72       8.28       7.79
O       4.73       6.38       7.72
O       4.73       8.65       8.01
O       8.54       6.00       7.82
O       5.66      13.01       3.74
