264

Zn       3.44       6.47       4.20
Zn       3.44      15.53      19.42
Zn       3.71       4.53      16.01
Zn       3.71      17.47       7.61
H       1.88      14.29      10.58
H       1.88       7.71      13.03
H       5.26      18.71      22.39
H       5.26       3.29       1.23
H       3.64      12.59      11.04
H       3.64       9.40      12.58
H       3.50      20.40      22.84
H       3.50       1.60       0.77
H       3.92      10.65       9.52
H       3.92      11.35      14.10
H       3.23       0.35      21.33
H       3.23      21.65       2.29
H       0.71      12.12       7.05
H       0.71       9.87      16.57
H       6.43      20.87      18.86
H       6.43       1.12       4.76
H       1.19      16.03       9.28
H       1.19       5.96      14.34
H       5.96      16.96      21.09
H       5.96       5.03       2.53
H       6.47      17.60       8.83
H       6.47       4.40      14.78
H       0.68      15.40      20.64
H       0.68       6.60       2.97
H       4.10      14.61       7.23
H       4.10       7.39      16.39
H       3.05      18.39      19.04
H       3.05       3.61       4.58
H       5.83      12.86       7.70
H       5.83       9.14      15.92
H       1.32      20.13      19.51
H       1.32       1.86       4.11
H       4.68      10.02       7.54
H       4.68      11.97      16.08
H       2.46       0.98      19.35
H       2.46      21.02       4.27
H       4.99       8.11       5.96
H       4.99      13.88      17.66
H       2.16       2.89      17.77
H       2.16      19.11       5.85
H       0.93       8.01       5.09
H       0.93      13.98      18.53
H       6.22       2.98      16.90
H       6.22      19.01       6.72
H       0.46       9.89       6.63
H       0.46      12.11      16.99
H       6.69       1.11      18.44
H       6.69      20.89       5.18
H       2.02       3.58       8.22
H       2.02      18.41      15.40
H       5.12       7.42      20.03
H       5.12      14.58       3.59
H       0.99       5.43       6.92
H       0.99      16.56      16.70
H       6.16       5.57      18.73
H       6.16      16.43       4.89
H       4.57       3.10       6.43
H       4.57      18.90      17.19
H       2.57       7.90      18.24
H       2.57      14.10       5.38
H       5.58       1.24       7.69
H       5.58      20.75      15.93
H       1.57       9.76      19.50
H       1.57      12.24       4.12
H       3.55       0.57       9.96
H       3.55      21.42      13.66
H       3.60      10.43      21.77
H       3.60      11.57       1.85
H       4.55       1.58      11.98
H       4.55      20.42      11.64
H       2.60       9.42       0.17
H       2.60      12.58      23.45
H       1.05       3.99      12.56
H       1.05      18.00      11.06
H       6.10       7.01       0.75
H       6.10      14.99      22.87
H       0.06       3.06      10.49
H       0.06      18.94      13.12
H       7.09       7.94      22.30
H       7.09      14.06       1.32
C       1.16      13.30       8.81
C       1.16       8.70      14.81
C       5.99      19.70      20.62
C       5.99       2.30       3.00
C       2.01      13.44       9.91
C       2.01       8.56      13.71
C       5.14      19.55      21.72
C       5.14       2.44       1.90
C       3.00      12.49      10.16
C       3.00       9.51      13.46
C       4.15      20.50      21.97
C       4.15       1.49       1.65
C       3.16      11.40       9.31
C       3.16      10.59      14.31
C       3.99      21.59      21.11
C       3.99       0.40       2.50
C       2.33      11.25       8.18
C       2.33      10.75      15.44
C       4.82      21.75      19.99
C       4.82       0.25       3.63
C       1.33      12.20       7.95
C       1.33       9.80      15.67
C       5.82      20.79      19.76
C       5.82       1.20       3.86
C       0.09      14.29       8.54
C       0.09       7.71      15.07
C       7.05      18.71      20.35
C       7.05       3.29       3.27
C       0.26      15.64       8.87
C       0.26       6.35      14.75
C       6.89      17.35      20.68
C       6.89       4.64       2.94
C       6.38      16.54       8.59
C       6.38       5.46      15.03
C       0.76      16.45      20.40
C       0.76       5.54       3.22
C       5.06      14.86       7.70
C       5.06       7.14      15.92
C       2.09      18.14      19.51
C       2.09       3.86       4.11
C       6.02      13.90       7.95
C       6.02       8.10      15.66
C       1.12      19.09      19.76
C       1.12       2.90       3.85
C       2.54      10.12       7.24
C       2.54      11.87      16.38
C       4.61       0.87      19.05
C       4.61      21.12       4.57
C       3.82       9.60       7.04
C       3.82      12.40      16.58
C       3.33       1.40      18.84
C       3.33      20.59       4.77
C       4.01       8.55       6.15
C       4.01      13.44      17.47
C       3.14       2.45      17.96
C       3.14      19.55       5.66
C       1.74       8.49       5.64
C       1.74      13.50      17.98
C       5.41       2.51      17.45
C       5.41      19.49       6.17
C       1.48       9.54       6.51
C       1.48      12.45      17.10
C       5.66       1.46      18.32
C       5.66      20.54       5.29
C       1.01       1.16       8.85
C       1.01      20.83      14.77
C       6.14       9.84      20.65
C       6.14      12.16       2.96
C       0.31       2.28       8.05
C       0.31      19.72      15.57
C       6.84       8.72      19.86
C       6.84      13.28       3.76
C       1.02       3.47       7.82
C       1.02      18.53      15.80
C       6.13       7.53      19.63
C       6.13      14.46       3.99
C       0.44       4.51       7.10
C       0.44      17.49      16.52
C       6.70       6.49      18.91
C       6.71      15.50       4.71
C       6.29       4.38       6.59
C       6.29      17.61      17.03
C       0.86       6.62      18.40
C       0.86      15.38       5.22
C       5.59       3.20       6.82
C       5.59      18.80      16.80
C       1.56       7.80      18.63
C       1.56      14.19       4.99
C       6.16       2.15       7.54
C       6.16      19.85      16.08
C       0.99       8.85      19.34
C       0.99      13.15       4.27
C       5.67       5.51       5.81
C       5.67      16.49      17.81
C       1.48       5.49      17.62
C       1.48      16.50       6.00
C       1.73       1.76      10.07
C       1.73      20.24      13.55
C       5.42       9.24      21.87
C       5.42      12.76       1.74
C       3.00       1.34      10.49
C       3.00      20.66      13.12
C       4.15       9.66      22.30
C       4.15      12.34       1.32
C       3.57       1.90      11.64
C       3.57      20.10      11.98
C       3.58       9.10      23.45
C       3.58      12.89       0.17
C       2.87       2.85      12.39
C       2.87      19.14      11.23
C       4.27       8.15       0.58
C       4.27      13.85      23.04
C       1.60       3.26      11.96
C       1.60      18.73      11.66
C       5.54       7.73       0.15
C       5.54      14.26      23.47
C       1.04       2.73      10.81
C       1.04      19.27      12.81
C       6.10       8.27      22.62
C       6.10      13.73       1.00
C       3.46       3.38      13.66
C       3.46      18.62       9.96
C       3.69       7.62       1.85
C       3.69      14.38      21.77
C       0.01       0.09       9.40
C       0.01      21.90      14.21
C       7.13      10.91      21.21
C       7.13      11.09       2.41
C       1.96       0.45       7.84
C       1.96      21.54      15.77
C       5.18      10.54      19.65
C       5.18      11.45       3.97
N       2.98       8.00       5.46
N       2.98      13.99      18.16
N       4.16       3.00      17.27
N       4.16      19.00       6.35
N       5.23      16.16       8.01
N       5.23       5.84      15.61
N       1.92      16.84      19.82
N       1.92       5.16       3.80
O       6.29       6.58       5.67
O       6.29      15.41      17.95
O       0.86       4.42      17.48
O       0.86      17.58       6.14
O       4.49       5.24       5.34
O       4.50      16.76      18.28
O       2.65       5.76      17.15
O       2.65      16.23       6.47
O       2.69       4.17      14.36
O       2.69      17.83       9.26
O       4.46       6.83       2.55
O       4.46      15.16      21.07
O       4.61       3.05      14.03
O       4.61      18.95       9.59
O       2.53       7.95       2.22
O       2.53      14.04      21.40
F       3.01       1.26       7.50
F       3.01      20.74      16.12
F       4.14       9.74      19.31
F       4.14      12.26       4.31
F       1.32       0.16       6.67
F       1.32      21.84      16.95
F       5.83      10.84      18.48
F       5.83      11.15       5.14
F       2.49      21.29       8.31
F       2.49       0.71      15.31
F       4.66      11.71      20.12
F       4.66      10.29       3.50
F       6.60      21.32       8.43
F       6.60       0.68      15.19
F       0.55      11.68      20.24
F       0.55      10.32       3.38
F       0.62      21.25      10.27
F       0.62       0.75      13.35
F       6.53      11.74      22.08
F       6.53      10.25       1.54
F       6.14       0.69      10.08
F       6.14      21.31      13.54
F       1.01      10.31      21.89
F       1.01      11.69       1.73
