208

Zn      11.97      15.46       7.74
Zn       8.87       6.88       0.87
Zn       2.51       2.35       6.53
Zn       5.61      10.93      13.39
H      12.83      16.00      11.79
H       8.01       2.80       1.23
H       1.65       1.81       2.47
H       6.47      15.01      13.03
H      11.87      13.33       3.29
H       8.96      11.69       1.98
H       2.60       4.48      10.97
H       5.52       6.12      12.28
H      11.14       3.30       1.28
H       9.70      15.84      11.32
H       3.34      14.51      12.99
H       4.78       1.97       2.94
H      11.12       2.98       3.76
H       9.72      13.49      12.17
H       3.36      14.83      10.50
H       4.76       4.32       2.09
H      12.12       6.26      12.93
H       8.71       3.82      10.97
H       2.36      11.54       1.33
H       5.76      13.99       3.29
H      12.10       5.49      10.54
H       8.73       6.32      11.21
H       2.37      12.32       3.72
H       5.75      11.49       3.05
H       7.38       4.76       7.88
H      13.46       9.08      11.34
H       7.10      13.05       6.38
H       1.02       8.73       2.92
H      12.10      12.42       8.41
H       8.74       6.89       3.98
H       2.38       5.39       5.85
H       5.74      10.92      10.28
H       9.59       3.74       7.23
H      11.25       9.94      12.19
H       4.89      14.07       7.03
H       3.23       7.87       2.07
H      10.58      10.73       9.51
H      10.26       6.18       5.87
H       3.90       7.08       4.75
H       4.22      11.62       8.39
H       8.32      11.47      10.32
H      12.51       5.23       5.32
H       6.16       6.34       3.94
H       1.96      12.58       8.94
H       5.69       3.34       9.08
H       2.43       8.22      12.99
H       8.79      14.47       5.18
H      12.05       9.59       1.28
H       6.01      15.71      10.10
H       2.11       4.52       1.14
H       8.47       2.10       4.16
H      12.37      13.29      13.12
H       6.64      13.35      10.54
H       1.49       4.61       3.54
H       7.84       4.46       3.73
H      12.99      13.20      10.72
H       1.56      14.21       6.92
H       6.56       7.96       1.91
H      12.92       3.60       7.35
H       7.91       9.85      12.35
H       1.73      15.00       8.25
H       6.39       6.48       1.43
H      12.75       2.81       6.01
H       8.08      11.33      12.83
C      12.03       4.24      13.69
C       8.80       3.52      13.12
C       2.44      13.57       0.57
C       5.68      14.29       1.14
C      12.01      13.48       0.36
C       8.82      14.51       1.18
C       2.47       4.33      13.90
C       5.65       3.30      13.08
C      11.13       1.17       0.90
C       9.71      16.68      13.31
C       3.35      16.64      13.36
C       4.77       1.13       0.95
C      12.89      17.48      13.37
C       7.94       0.95       0.13
C       1.59       0.33       0.90
C       6.54      16.86      14.14
C      11.98      14.49       1.47
C       8.86      13.21       0.44
C       2.50       3.31      12.79
C       5.62       4.60      13.82
C      12.00       3.41      11.04
C       8.84       6.30      13.35
C       2.48      14.40       3.23
C       5.64      11.51       0.92
C      11.86      15.29       5.14
C       8.98       9.45       0.46
C       2.62       2.52       9.12
C       5.50       8.36      13.80
C      12.86      17.05      12.05
C       7.97       2.32       0.25
C       1.61       0.76       2.21
C       6.51      15.49      14.01
C      11.92      14.32       2.84
C       8.91      11.91       0.91
C       2.55       3.49      11.42
C       5.57       5.90      13.35
C      11.05       0.84       3.66
C       9.79      14.05      14.24
C       3.43      16.97      10.60
C       4.69       3.76       0.02
C      11.13       2.30       1.71
C       9.71      15.64      12.39
C       3.35      15.51      12.56
C       4.77       2.17       1.87
C      11.94       2.99       9.60
C       8.90       7.79      13.45
C       2.54      14.82       4.66
C       5.58      10.02       0.82
C      11.10       2.12       3.09
C       9.73      14.33      12.87
C       3.37      15.69      11.17
C       4.75       3.48       1.40
C      12.08       5.20      12.69
C       8.76       4.29      11.96
C       2.40      12.61       1.57
C       5.72      13.52       2.30
C      12.07       4.77      11.36
C       8.77       5.68      12.09
C       2.41      13.04       2.90
C       5.71      12.13       2.17
C       9.50      14.36       8.93
C      11.34       5.96       2.20
C       4.98       3.45       5.34
C       3.14      11.85      12.06
C       7.59       3.72       8.12
C      13.25       9.08      12.41
C       6.89      14.09       6.15
C       1.23       8.73       1.85
C       9.12      15.73       8.65
C      11.72       5.93       0.81
C       5.36       2.08       5.61
C       2.76      11.88      13.46
C      11.10      12.69       8.75
C       9.74       6.49       3.79
C       3.38       5.12       5.51
C       4.74      11.31      10.47
C       8.83       3.16       7.74
C      12.01       9.56      12.87
C       5.65      14.65       6.52
C       2.47       8.25       1.39
C       8.58      13.49       9.57
C      12.26       5.52       3.18
C       5.90       4.31       4.69
C       2.22      12.29      11.08
C      10.24      11.75       9.36
C      10.60       6.10       4.84
C       4.24       6.05       4.90
C       3.88      11.70       9.42
C       8.99      12.16       9.79
C      11.85       5.60       4.54
C       5.49       5.65       4.47
C       2.63      12.21       9.73
C       6.65       2.94       8.78
C       1.47       8.60      13.32
C       7.82      14.87       5.49
C      13.01       9.21       0.95
C       7.85      16.20       9.06
C      12.99       5.42       0.43
C       6.63       1.61       5.20
C       1.49      12.38      13.83
C       6.96      15.31       9.75
C       1.16       4.95       1.45
C       7.52       2.50       4.51
C      13.32      12.86      12.81
C       7.31      14.01       9.99
C       0.81       5.00       2.77
C       7.17       3.80       4.27
C      13.67      12.81      11.49
N      10.74      13.96       8.56
N      10.10       6.41       2.51
N       3.74       3.85       5.70
N       4.38      11.40      11.75
N       9.14       1.89       8.01
N      11.70       9.58      14.17
N       5.34      15.92       6.26
N       2.78       8.23       0.10
O      11.37       1.68       5.88
O       9.47      11.70      13.91
O       3.11      16.13       8.38
O       5.01       6.11       0.35
O      13.82      14.37       7.81
O       7.02       7.05       1.94
O       0.66       3.44       6.46
O       7.46      10.76      12.32
O      12.05      12.26       0.47
O       8.78      14.68       2.40
O       2.43       5.55      13.80
O       5.70       3.13      11.86
O      12.63      16.34       9.41
O       8.21       5.05       0.37
O       1.85       1.47       4.85
O       6.27      12.76      13.89
O      11.43      14.23       5.64
O       9.41       9.20       1.61
O       3.05       3.58       8.62
O       5.07       8.61      12.65
O      12.06       3.86       8.69
O       8.78       8.48      12.39
O       2.42      13.95       5.57
O       5.70       9.33       1.87
