76

Al       0.14      16.97       8.92
Al       3.44       0.05       8.96
Al       6.21       8.49      17.75
Al       2.88       8.58      17.80
H       5.17       1.67       8.42
H       1.89      15.36       8.39
H       4.73       6.84       0.49
H       1.38      10.17       0.51
C       1.80       1.68       7.19
C       1.67       1.59      10.72
C       5.07      15.40      10.68
C       5.16      15.37       7.16
C       1.43       6.84       1.72
C       1.31       6.94      15.99
C       4.61      10.15      16.03
C       4.77      10.16       1.74
C       0.58       3.55      11.97
C       2.40       4.99      14.74
C       1.60       2.63      11.76
C       1.38       5.90      14.95
C       2.11       4.13      13.65
C       0.87       4.41      13.06
C       4.08      13.39       5.89
C       5.85      12.14       3.01
C       5.07      14.35       6.11
C       4.86      11.19       2.80
C       5.57      12.94       4.14
C       4.36      12.59       4.76
C       5.91      13.33      12.01
C       3.77      12.22      14.70
C       5.03      14.37      11.73
C       4.65      11.17      14.98
C       4.23      13.00      13.62
C       5.45      12.55      13.09
C       0.73       3.65       5.90
C       2.50       4.87       3.00
C       1.72       2.70       6.13
C       1.50       5.81       2.77
C       2.22       4.08       4.14
C       1.01       4.44       4.76
S       2.93       2.83      12.87
S       0.05       5.70      13.84
S       6.36      14.25       4.94
S       3.57      11.29       3.97
S       3.63      14.38      12.78
S       6.05      11.17      13.93
S       3.02       2.80       4.96
S       0.21       5.72       3.94
Cl       5.83       3.70      11.02
Cl       3.81       4.83      15.69
Cl       2.69      13.12       6.86
Cl       0.57      12.41       2.04
Cl       0.68      12.97      11.16
Cl       2.34      12.58      15.55
Cl       6.01       3.93       6.86
Cl       3.89       4.59       2.04
O       0.70       1.38       7.75
O       2.81       1.37      10.18
O       3.98      16.02      10.48
O       6.31      15.89       7.37
O       6.17      15.59      10.06
O       4.08      15.65       7.77
O       2.95       1.19       7.44
O       0.58       1.01      10.43
O       5.12       0.83       8.88
O       1.82      16.20       8.88
O       0.28       7.33       1.46
O       2.40       7.53      16.28
O       3.51       9.96      16.65
O       5.85       9.88       1.13
O       5.70       9.53      16.24
O       3.62       9.65       1.53
O       2.52       7.14       1.15
O       0.17       7.16      16.53
O       4.78       7.69       0.02
O       1.44       9.34       0.03
