140

Zn      13.56       4.56      12.25
Zn      10.72       4.91      12.35
Zn       3.33      13.99       2.52
Zn       6.16      13.64       2.42
H       4.15       5.30      14.36
H       4.21       4.19      10.17
H       6.09       4.42      14.41
H      13.49       2.02       1.46
H      13.75       2.67       3.83
H       9.22       2.16       2.02
H       1.67       5.06      14.29
H       1.72       4.11      10.26
H       9.91       4.47       7.99
H      13.96       3.05       8.23
H      10.47       9.14      12.27
H      13.77       2.35       5.84
H      10.76      11.61      12.40
H      15.65      15.02      12.64
H      11.04      13.53      11.96
H      11.48      15.97      12.24
H       8.58       4.62      14.36
H      14.70       8.80      11.58
H       6.12       5.28      10.16
H       8.61       5.32      10.29
H      12.74      13.25       0.41
H      12.67      14.36       4.60
H      10.80      14.12       0.35
H       3.40      16.52      13.30
H       3.14      15.87      10.94
H       7.66      16.39      12.75
H      15.21      13.48       0.48
H      15.16      14.44       4.51
H       6.98      14.08       6.78
H       2.93      15.50       6.54
H       6.42       9.41       2.50
H       3.12      16.20       8.93
H       6.13       6.93       2.37
H       1.23       3.52       2.12
H       5.85       5.02       2.81
H       5.41       2.58       2.53
H       8.31      13.93       0.41
H       2.19       9.74       3.18
H      10.77      13.27       4.60
H       8.28      13.23       4.48
C       5.88       4.84      12.28
C       4.40       4.77      12.27
C       3.66       5.02      13.43
C      11.14       1.68       0.11
C      12.01       4.21       9.73
C       3.70       4.43      11.10
C       6.60       4.66      13.48
C      12.42       7.29      11.95
C      11.33       2.05       1.55
C      12.61       2.20       2.08
C      12.75       2.54       3.42
C      13.60      15.69      12.47
C      10.24       2.26       2.41
C      11.73       3.08       5.64
C      12.56       8.78      11.93
C       2.28       4.90      13.40
C       2.31       4.36      11.14
C      11.60       2.72       4.21
C      10.78       4.00       7.53
C      11.95       3.81       8.29
C      13.04       3.21       7.66
C      13.89      17.15      12.58
C      11.45       9.60      12.14
C      12.93       2.83       6.33
C      13.13      12.98      12.18
C      11.62      10.97      12.21
C      14.62      14.72      12.50
C      12.05      13.88      12.13
C      12.29      15.24      12.28
C      12.91      11.51      12.06
C       7.98       4.74      13.46
C      13.81       9.41      11.76
C       6.61       5.10      11.12
C       8.00       5.15      11.17
C      11.01      13.70       2.48
C      12.48      13.78       2.50
C      13.23      13.53       1.34
C       5.74      16.87      14.65
C       4.87      14.34       5.03
C      13.19      14.12       3.67
C      10.29      13.89       1.29
C       4.46      11.25       2.81
C       5.56      16.50      13.22
C       4.27      16.35      12.68
C       4.13      16.01      11.35
C       3.29       2.86       2.30
C       6.65      16.28      12.36
C       5.16      15.47       9.12
C       4.32       9.76       2.84
C      14.61      13.65       1.37
C      14.57      14.19       3.63
C       5.28      15.82      10.56
C       6.10      14.55       7.24
C       4.94      14.74       6.47
C       3.85      15.34       7.10
C       3.00       1.40       2.19
C       5.44       8.95       2.63
C       3.96      15.72       8.43
C       3.75       5.57       2.58
C       5.27       7.57       2.56
C       2.27       3.83       2.27
C       4.84       4.67       2.64
C       4.60       3.31       2.49
C       3.98       7.03       2.71
C       8.91      13.81       1.31
C       3.08       9.13       3.00
C      10.27      13.45       3.65
C       8.89      13.40       3.59
N       8.68       4.97      12.32
N       1.62       4.58      12.27
N      10.36       2.58       3.70
N      14.40      13.41      12.37
N      10.67       3.66       6.24
N      13.99      10.74      11.82
N       8.21      13.58       2.44
N      15.27      13.97       2.50
N       6.53      15.97      11.07
N       2.49       5.14       2.40
N       6.22      14.89       8.52
N       2.90       7.81       2.95
O      10.95       5.08      14.44
O      13.20       5.04      14.20
O      10.95       4.63      10.28
O      13.15       4.06      10.31
O      15.10      17.54      12.65
O      11.25       6.85      12.19
O      13.47       6.59      11.78
O      12.86      17.91      12.58
O       5.94      13.47       0.33
O       3.68      13.51       0.56
O       5.94      13.91       4.49
O       3.74      14.48       4.46
O       1.79       1.01       2.11
O       5.64      11.70       2.58
O       3.42      11.96       2.99
O       4.03       0.64       2.19
