225

Al       1.71       6.32      13.69
Al      -1.49       6.55      13.68
Al       0.08       9.09      13.72
Al      11.29       0.56      27.08
Al       1.37       0.42      26.99
Al       6.57       9.43      27.08
H      -1.41      10.89       5.28
H       3.62       7.61       5.29
H      -1.97       3.69       5.17
H      -0.73       9.12       7.46
H       1.77       8.02       7.46
H      -1.34       5.42       7.41
H      -1.04       9.17       5.15
H       2.09       8.50       5.20
H      -0.95       5.13       5.14
H       8.56       7.98       5.41
H       9.97       0.27       5.84
H       2.25       3.30       5.80
H       3.78      -0.29      23.74
H       4.99       7.59      23.71
H      10.96       2.55      23.64
H      -1.21      10.56      17.16
H       3.39       6.90      17.15
H      -2.35       4.54      17.15
H       5.09       0.40      21.74
H       4.96       6.20      21.63
H       9.65       3.29      21.64
H       5.57       0.16      19.32
H       4.41       5.97      19.22
H       9.58       3.99      19.27
H       7.77       7.97      23.53
H       9.60      -0.12      23.75
H       2.08       2.01      23.36
H       7.44       6.77      21.37
H       8.61       0.83      21.67
H       3.25       2.36      21.18
H       7.94       6.51      18.96
H       8.08       0.60      19.25
H       3.18       3.06      18.80
H      -1.29      10.79       7.62
H       3.39       7.34       7.61
H      -2.27       3.92       7.49
H      -3.90       7.22      16.94
H       1.60      10.80      17.18
H       1.90       3.99      16.87
H      -3.67      11.31       8.07
H       5.31       8.71       8.27
H      11.97       1.77       8.01
H       2.63       0.02       5.78
H       5.77       8.89       6.01
H      12.19       1.43       5.73
H      -5.12      10.43       5.75
H       5.69      10.65       6.18
H       0.81       1.28       5.96
H      -2.49       7.24       7.32
H       1.51      10.59       7.55
H       1.20       5.34       7.59
H      -4.19       7.60       7.68
H       9.32       0.00       8.07
H       2.01       3.84       8.04
H      -5.81      10.61       8.25
H       5.13      10.68       9.46
H       0.82       1.67       9.26
H      -2.38       6.29       3.20
H      -3.77       7.39       3.20
H       9.51       4.72       4.70
H       8.12       5.80       4.70
H       7.87       5.50       2.20
H       7.82       3.93       3.02
H       9.30       4.45       2.18
H       6.99       0.58       4.10
H       8.58       1.31       4.45
H       6.40       0.75       6.55
H       7.95       1.53       6.88
H       7.35       3.44       5.36
H       6.10       3.23       6.61
H       5.81       2.65       4.96
H       2.65       6.14       3.80
H       2.64       4.38       3.64
H       4.05       5.82       5.95
H       4.23       4.13       5.50
H       5.32       4.81       3.32
H       6.19       5.48       4.70
H       5.11       6.52       3.74
H       3.72       5.39      12.91
H       9.57       2.05       0.44
C       2.12       8.72      11.88
C      -0.23       4.94      11.81
C      -1.97       8.65      11.78
C      -3.51       8.15       5.66
C       2.96      10.93       5.98
C       1.40       3.97       5.95
C      -3.28       7.98       7.18
C       2.60      10.72       7.47
C       1.19       4.26       7.45
C      -3.39       9.84       3.84
C       4.16       9.88       4.10
C       0.28       3.03       3.96
C      -2.65       9.13       9.27
C       2.97       9.29       9.44
C      -0.29       3.96       9.36
C      -2.42       8.96      10.46
C       2.67       9.11      10.61
C      -0.32       4.28      10.53
C      -0.04       1.80      25.04
C      -4.48       9.92      25.16
C       4.56       9.78      25.24
C       0.31       2.37       1.41
C      -4.21      10.36       1.38
C       4.87      10.31       1.58
C      -1.93       9.91      17.66
C       3.15       7.81      17.71
C      -1.42       4.22      17.62
C      -2.21      10.08      19.02
C       3.49       7.93      19.06
C      -1.41       3.76      18.95
C      -2.78      10.36      21.80
C       4.13       8.20      21.82
C      -1.34       2.96      21.68
C       1.99       8.59      15.66
C      -0.21       4.95      15.56
C      -2.08       8.63      15.53
C      -1.84      11.23      21.14
C       4.46       7.01      21.09
C      10.56       3.32      21.05
C      -1.58      11.09      19.81
C       4.16       6.88      19.77
C      10.52       3.70      19.74
C      -3.11      10.51      23.16
C       4.45       8.37      23.17
C      -1.27       2.59      23.03
C      -4.03       9.65      23.77
C       4.11       9.54      23.85
C      -0.05       2.26      23.62
C      -3.45       8.02      17.53
C       2.13      10.02      17.72
C       0.99       3.91      17.46
C      -3.77       8.16      18.89
C       2.47      10.19      19.07
C       1.04       3.44      18.78
C      -3.14       9.19      19.65
C       3.14       9.13      19.76
C      -0.17       3.39      19.55
C       8.43       7.29      19.55
C       8.57      -0.21      19.79
C       2.27       3.04      19.41
C       8.15       7.43      20.88
C       8.86      -0.08      21.12
C       2.31       2.66      20.72
C      -4.35       8.45      21.67
C       3.09      10.45      21.84
C       1.12       2.64      21.52
C      -1.54       9.81       7.19
C       2.83       8.21       7.24
C      -1.31       4.35       7.15
C      -3.42       9.33      21.04
C       3.45       9.26      21.13
C      -0.13       2.99      20.91
C      -4.64       8.62      23.03
C       3.42      10.57      23.19
C       1.14       2.29      22.88
C      -2.53       8.88      16.92
C       2.46       8.84      17.05
C      -0.22       4.31      16.90
C      -3.96      10.36       7.58
C       4.82       9.60       7.85
C      -0.20       2.16       7.65
C      -4.07      10.58       6.05
C       5.13       9.72       6.35
C      -0.06       1.94       6.14
C      -3.67      10.06       2.67
C       4.45       9.99       2.92
C       0.37       2.83       2.77
C      -2.86       9.31       7.85
C       3.29       9.46       8.04
C      -0.16       3.69       7.94
C      -1.69       9.89       5.65
C       3.05       8.43       5.74
C      -1.10       4.17       5.64
C      -3.16       9.61       5.25
C       3.83       9.74       5.50
C       0.13       3.27       5.38
C      -3.25       6.62       3.79
C       8.97       5.45       4.09
C       8.46       4.80       2.80
C       7.76       0.70       4.88
C       7.17       1.40       6.11
C       6.58       2.75       5.74
C       2.74       5.20       4.36
C       4.08       5.14       5.08
C       5.24       5.51       4.16
O       0.93       5.27      12.19
O      -2.35       7.53      12.29
O       1.36       9.58      12.46
O       4.53      11.44       1.13
O       1.43       2.17       0.80
O      -5.02       9.50       0.87
O       2.38       7.55      12.28
O      -1.34       5.20      12.41
O      -1.17       9.48      12.34
O       0.92       5.17      15.02
O      -2.47       7.56      14.95
O       1.26       9.50      15.11
O       2.30       7.49      15.13
O      -1.35       5.30      15.05
O      -1.26       9.46      15.00
O       0.08       7.33      13.68
O       4.21      10.87      25.79
O       1.11       1.62      25.60
O      -5.28       9.08      25.71
O      -1.15       1.58      25.58
O      -4.10      11.01      25.71
O       5.34       8.91      25.78
O      -0.18      -0.41      27.07
O      -0.84       2.16       0.94
O      -3.91      11.49       0.85
O       5.58       9.42       0.97
O      -5.17       9.87       8.14
O       5.32      10.78       8.51
O       0.87       1.46       8.30
O      -2.69       7.20       4.99
O       1.80      10.97       5.15
O       1.63       5.21       5.27
O       3.19       5.39      13.72
O       9.78       1.45      27.07
