202

Zn       9.28      18.92       0.88
Zn       9.85      -5.17      21.76
Zn       6.47      20.45       0.90
Zn      -2.08      13.65      20.10
Zn       6.76       7.96      10.08
Zn       7.18       4.93      10.84
Zn       8.40       7.22      12.75
Zn       9.68       6.70       9.85
H       2.52       0.41       0.55
H      -8.01      20.16       1.58
H       3.66      -0.53       3.59
H       3.99       0.91       5.57
H       1.12       3.72       4.01
H       0.84       2.32       2.00
H       2.45       5.14       5.12
H       2.62       6.54       7.15
H       3.32       3.01       9.52
H       3.08       1.61       7.50
H       2.57       6.68       9.60
H       2.72       5.20      10.59
H       6.11      18.69       4.89
H       7.84      18.95       5.23
H       9.48      16.98       4.69
H       9.78      14.56       5.02
H       5.50      14.05       5.18
H       5.21      16.49       4.89
H       6.14      12.48       6.68
H       6.44      10.08       7.09
H       9.94      10.08       4.58
H       9.61      12.47       4.11
H       7.63       7.84       5.66
H       9.40       8.10       5.72
H      -1.36       9.20      19.82
H      -0.06       9.06      21.04
H       2.22       9.03      20.32
H       3.92       9.28      18.55
H       0.93      10.90      15.90
H      -0.78      10.61      17.67
H       2.28       9.85      14.39
H       3.96      10.32      12.64
H     -14.63      11.26      15.69
H       5.15      10.85      17.43
H       6.14      11.77      12.19
H       7.43      11.61      13.42
H      16.49       3.90       0.24
H      17.67       4.29       1.48
H      16.80       4.96       3.57
H      15.05       4.91       5.32
H      12.79       2.11       2.95
H      14.50       2.21       1.19
H      11.10       3.05       4.02
H       9.48       2.61       5.82
H      12.55       3.27       8.76
H      14.19       3.65       6.96
H       9.06       2.00       8.13
H      10.38       1.96       9.29
H      -0.06      15.67      16.71
H      11.74      -4.66      17.71
H      10.11      -2.65      19.17
H       9.11      -0.49      18.52
H       8.76      -1.87      14.45
H       9.76      -4.03      15.11
H       9.31       0.43      14.18
H       8.29       2.57      13.53
H       6.08       2.64      17.22
H       7.06       0.47      17.85
H       5.39       3.90      14.76
H       6.48       4.76      15.87
H      -6.40      15.10      19.43
H      -7.12      14.11      20.71
H      -8.29      12.18      20.06
H      -8.96      10.53      18.36
H      -5.87      11.98      15.74
H      -5.23      13.66      17.43
H      -7.44      11.45      14.21
H      -7.97       9.77      12.48
H      -9.00       6.94      15.54
H      -8.42       8.59      17.28
H      -8.07       7.31      11.98
H      -8.63       6.19      13.22
C      -9.98      20.82       1.07
C       2.07      -0.09       1.43
C       2.23       0.79       2.65
C       3.10       0.41       3.68
C       3.28       1.22       4.80
C       2.58       2.42       4.95
C       1.71       2.80       3.91
C       1.54       2.01       2.78
C       2.74       3.26       6.15
C       2.61       4.66       6.08
C       2.72       5.45       7.23
C       2.96       4.87       8.48
C       3.11       3.48       8.55
C       3.00       2.69       7.41
C       3.11       5.73       9.71
C       4.58       6.04       9.98
C       7.37      18.85       3.17
C       7.12      18.40       4.60
C       7.32      16.91       4.78
C       8.60      16.34       4.81
C       8.77      14.97       4.98
C       7.67      14.12       5.13
C       6.38      14.69       5.09
C       6.22      16.06       4.92
C       7.85      12.67       5.36
C       6.96      11.96       6.19
C       7.14      10.60       6.44
C       8.22       9.90       5.87
C       9.10      10.60       5.04
C       8.92      11.96       4.79
C       8.44       8.42       6.14
C       8.40       8.07       7.62
C      -0.81      11.04      20.74
C      -0.44       9.66      20.21
C       0.59       9.79      19.11
C       1.93       9.44      19.35
C       2.89       9.59      18.35
C       2.56      10.11      17.09
C       1.21      10.46      16.86
C       0.25      10.30      17.85
C       3.58      10.32      16.05
C       3.27      10.18      14.68
C       4.23      10.44      13.70
C       5.52      10.84      14.04
C       5.84      10.96      15.40
C       4.89      10.71      16.38
C       6.55      11.12      12.97
C       7.01       9.81      12.33
C      17.53       2.22       0.96
C      16.88       3.58       1.23
C      15.78       3.58       2.26
C      15.91       4.34       3.43
C      14.93       4.30       4.42
C      13.78       3.50       4.27
C      13.65       2.77       3.08
C      14.62       2.81       2.09
C      12.78       3.37       5.35
C      11.43       3.08       5.06
C      10.51       2.84       6.08
C      10.90       2.88       7.42
C      12.23       3.21       7.72
C      13.15       3.45       6.70
C       9.91       2.58       8.51
C       9.35       3.80       9.23
C      -0.50      15.75      18.80
C       0.06      16.38      17.54
C      10.01      -3.50      17.19
C       9.81      -2.49      18.14
C       9.24      -1.27      17.77
C       8.86      -1.01      16.44
C       9.07      -2.03      15.49
C       9.62      -3.25      15.86
C       8.26       0.28      16.06
C       8.59       0.90      14.84
C       8.02       2.13      14.48
C       7.11       2.77      15.33
C       6.79       2.16      16.55
C       7.35       0.94      16.91
C       6.45       4.10      15.00
C       7.02       4.84      13.81
C      -4.99      14.00      20.52
C      -6.38      14.10      19.89
C      -6.72      13.06      18.86
C      -7.75      12.14      19.11
C      -8.13      11.20      18.15
C      -7.47      11.13      16.91
C      -6.42      12.04      16.68
C      -6.05      12.98      17.63
C      -7.87      10.15      15.88
C      -7.76      10.46      14.51
C      -8.07       9.51      13.53
C      -8.50       8.23      13.89
C      -8.65       7.93      15.25
C      -8.34       8.87      16.22
C      -8.77       7.20      12.81
C     -10.18       7.23      12.25
O      -1.69      14.31      21.91
O      -0.07       0.62       0.67
O     -10.38      19.62       1.19
O       5.34       5.03      10.14
O       4.92       7.26      10.01
O       6.41      19.46       2.59
O       8.52      18.59       2.67
O       9.50       7.70       8.16
O       7.27       8.17       8.20
O      -1.52      11.77      19.97
O      -0.35      11.37      21.89
O       7.69       9.03      13.07
O       6.64       9.61      11.13
O      16.91       1.18       1.33
O      18.65       2.26       0.35
O      10.07       4.85       9.26
O       8.20       3.64       9.77
O      -1.23      14.71      18.68
O      10.40      -4.87      19.89
O       7.57       5.96      14.03
O       6.88       4.27      12.67
O      -4.02      13.75      19.75
O      -4.93      14.23      21.78
O     -11.14       7.22      13.08
O      11.20       7.23      10.97
O       8.03       6.69      10.90
