72

Al       6.00       6.86       8.57
Al       2.68       6.80       8.55
Al       2.62       0.16      16.98
Al       6.02      13.52      16.97
H       6.48       2.78       3.21
H       2.87       3.99       5.27
H       2.01       3.91      11.73
H       5.60       2.64      13.64
H       6.33      10.86       3.27
H       3.26      10.62       3.27
H       6.34       9.37       5.22
H       3.26       9.56       5.22
H       6.34      10.77      13.86
H       3.30      11.05      13.46
H       6.33       9.49      11.73
H       3.28       9.30      12.08
H       5.63       4.32      11.82
H       1.98       3.04      13.80
H       4.38       5.10       8.16
H       1.04       8.47       8.03
H       4.26       1.65       0.49
H       0.98      11.73       0.45
C       4.34       8.42       6.72
C       4.31       8.33      10.44
C       0.98       5.21      10.33
C       0.99       5.29       6.66
C       1.87       2.95       3.66
C       0.82       2.49       2.94
C       1.89       3.82       4.82
C       0.87       4.45       5.43
C       6.59       3.92      12.17
C       1.02       4.28      11.48
C       6.57       3.03      13.31
C       0.98       2.67      14.03
C       5.36      10.53       3.65
C       4.26      10.92       2.97
C       5.36       9.69       4.84
C       4.27       9.28       5.52
C       5.38      10.57      13.38
C       4.29      11.16      13.90
C       5.37       9.72      12.20
C       4.27       9.16      11.65
C       4.32      12.02      15.11
C       4.32      11.78       1.77
C       0.90       1.58       1.78
C       0.92       1.74      15.18
N       3.26       2.52       3.30
N       6.15       4.38       4.96
O       3.18       7.92      10.01
O       5.49       8.07       7.16
O       6.56       5.59       7.19
O       5.44       8.08       9.90
O       6.52       5.65       9.95
O       3.22       8.10       7.23
O       4.35       6.01       8.50
O       2.11       5.49       9.80
O       2.16       5.59       7.06
O       1.01       7.63       8.51
O       5.47      12.16       1.36
O       3.19      12.44      15.51
O       2.04       1.47      15.72
O       3.20      12.07       1.24
O       2.05       1.17       1.40
O       5.45      12.26      15.66
O       4.29       0.97      17.04
O       6.45       1.30       1.25
O       6.46       1.29      15.54
O       1.02      12.72      17.01
O       3.87       3.23       2.50
O       3.70       1.54       3.90
O       5.44       3.48       5.43
O       5.79       5.24       4.16
