77

Al       0.87      13.17       7.92
H       2.74      -1.94       5.29
H       1.51      -1.62       4.22
H       1.91      15.53       0.63
H       2.40      -1.12       2.22
H      -0.67      10.80       5.29
H       0.53      10.49       4.19
H       3.27      10.71       0.62
H       3.30       9.95       2.24
H      -0.76       0.77      13.74
H       0.29      -0.57      13.43
H       0.21      -3.05      11.24
H      -0.44      -2.45      12.70
H       1.11       2.86       9.69
H       0.72       1.72       8.43
H       2.09      -0.96       7.27
H       2.15       0.74       7.30
H      -0.75       8.19      13.81
H       2.01       9.56      13.53
H       2.34      -5.47      11.28
H      -0.69      -6.02      12.70
H       0.86       5.98       9.66
H       1.10       7.08       8.31
H      -0.11       9.83       7.28
H      -0.40       8.16       7.29
C       2.76      13.16       5.80
C      -0.99      11.37       9.01
C      -0.71      -2.48       8.99
C       3.00      11.94       2.22
C       2.63      13.13       1.48
C      -0.71       8.96      11.93
C      -0.14       7.80      11.29
C       2.27       1.11      11.27
C       1.96       1.03       9.86
C       0.06       7.84       9.86
C      -0.23       9.01       9.13
C      -0.78      10.14       9.78
C      -1.05      10.10      11.17
C       2.24      -0.14       9.13
C       2.87      -1.25       9.75
C      -0.58      -1.18      11.13
C      -0.90      -0.03      11.89
C       2.32      14.33       2.23
C       2.40      14.33       3.63
C       2.74      13.15       4.31
C       3.03      11.97       3.63
C       1.64       3.36      14.09
C       0.72       5.62      14.10
C       2.57      13.11       0.04
C       1.92       2.29      12.04
C       1.08       4.46      12.01
C       0.26       6.63      12.06
N       1.15       4.48      13.40
N       0.78       5.61      15.42
N       1.71       3.40      15.41
N       2.04       2.29      13.40
N       1.46       3.37      11.35
N       0.26       6.67      13.42
N       0.63       5.52      11.36
N       2.50      -1.89       4.30
N       1.92      15.50       1.65
N      -0.46      10.74       4.30
N       3.35      10.76       1.64
N      -0.59      -0.10      13.23
N       0.03      -2.23      11.82
N       1.39       2.05       9.13
N       1.86      -0.11       7.78
N      -0.94       9.05      13.29
N       2.55      -6.27      11.87
N       0.54       6.79       9.11
N       0.06       8.95       7.76
O       0.23      -3.30       9.27
O      -0.13      13.84       6.39
O      -0.17      11.61       8.04
O       2.27      -2.73       8.01
O       1.87      12.20       9.29
O       1.87      12.47       6.41
