86

Al       0.08      12.31       0.00
Al       0.08      12.31      14.21
H       0.98      14.09       3.68
H       0.98      10.52      10.54
H       3.29      14.13      10.52
H       3.26      14.13       8.02
H       3.30      10.48       3.69
H       3.26      10.48       6.19
H       0.98       2.30      17.94
H       0.98      10.02      17.60
H       3.29       8.20      14.48
H       3.26       6.04      15.73
H       3.30       4.12      21.06
H       3.26       6.28      19.81
H       0.98      -4.08      21.02
H       0.98      -8.23      14.50
H       3.29     -10.02      17.64
H       3.26      -7.86      18.89
H       3.30      -2.28      17.89
H       3.26      -4.45      16.64
H       0.42      14.90       5.71
H       0.42       9.71       8.51
H       0.42       3.65      16.23
H       0.42       8.67      19.31
H       0.42      -6.24      20.71
H       0.41      -6.07      14.82
C       2.09      -1.76      20.26
C       2.09      12.27       2.06
C       2.09       1.80      20.33
C       2.09      12.34      12.16
C       2.09      10.51      15.21
C       2.09      14.07      15.27
C       2.13      12.28       3.54
C       2.13      12.33      10.67
C       1.51      13.32       4.24
C       1.54      13.35       5.63
C       1.51      11.29       9.97
C       1.54      11.26       8.58
C       2.78      13.35       9.97
C       2.76      13.34       8.58
C       2.78      11.26       4.25
C       2.76      11.27       5.64
C       2.16      12.31       6.37
C       2.16      12.30       7.85
C       2.13       3.08      19.57
C       2.13       9.23      15.97
C       1.51       3.17      18.33
C       1.54       4.36      17.60
C       1.51       9.15      17.21
C       1.54       7.96      17.94
C       2.78       8.11      15.44
C       2.76       6.91      16.14
C       2.78       4.20      20.11
C       2.76       5.40      19.40
C       2.16       5.51      18.14
C       2.16       6.80      17.40
C       2.13      -3.05      19.53
C       2.13      15.37      16.00
C       1.51      -4.18      20.07
C       1.54      -5.40      19.40
C       1.50      -8.13      15.45
C       1.54      -6.91      16.12
C       2.78      -9.15      17.24
C       2.76      -7.94      17.92
C       2.78      -3.15      18.29
C       2.76      -4.36      17.60
C       2.16      -5.51      18.14
C       2.16      -6.79      17.39
O       3.02       1.59      21.18
O       3.02      -0.91      20.01
O       3.02      11.63       1.44
O       1.14       0.99      20.07
O       1.14      12.90       1.49
O       1.14      -1.58      21.09
O       3.02      13.23      15.52
O       3.02      12.98      12.77
O       3.02      10.72      14.36
O       1.13      13.89      14.44
O       1.13      11.32      15.47
O       1.13      11.72      12.73
O       0.96      14.39       6.33
O       0.96      10.23       7.88
O       0.96       4.45      16.36
O       0.96       7.87      19.19
O       0.96      -6.52      19.95
O       0.96      -5.79      15.57
