114

Zn      -2.35      -2.86       7.94
Zn       9.28       9.14       4.47
Zn       6.38       8.35       6.02
Zn      -0.23      -1.83       6.24
H      -2.93      -4.12      10.85
H      -3.59       7.44       6.29
H       6.87       8.03       0.80
H       1.70       2.16      10.13
H       2.81       2.55      12.15
H       2.79       7.80       0.06
H       3.35       9.07       1.91
H       3.41      10.57       0.99
H       0.26       3.03      10.67
H       6.52       5.09       5.71
H       0.88       7.26       8.15
H       8.08      10.32       1.78
H       3.04      -4.06       9.79
H      -1.22       7.79       7.57
H      10.19       3.71       2.86
H       8.12       2.90       4.99
H      11.17       1.57       3.14
H       8.85       0.81       5.03
H      -7.02       3.69      12.20
H       1.96      -0.19       1.46
H      -6.55       5.27      10.40
H       1.17       0.66       8.26
H       3.58       6.53       7.21
H      10.05       6.10       3.41
H      -2.01      -0.98      10.70
H       0.85      -3.05       8.85
H       6.98       6.36       8.33
H      -3.29       9.53       0.83
H       5.98      12.20       1.01
H       4.81      -3.38      10.70
H       9.82      -5.82      11.98
H       9.32      -2.12       7.72
H       1.65      -0.39       4.01
H       6.93      -3.23       7.55
H      -1.93      -0.12       3.94
H       4.42       9.46       3.93
H       2.17      -0.11      11.12
H       0.89      -1.08      11.84
C      -3.03      -4.85      10.05
C       7.38      -4.20       7.35
C      12.00      -0.59       4.68
C      -3.75       8.38       6.81
C       5.43       9.67       3.59
C      10.64      -0.35       4.97
C       5.92       9.91       2.30
C       2.59       8.49       7.76
C      -2.91      11.99       2.46
C       1.31      -0.07      11.80
C       5.79       8.06       0.68
C      -2.99       8.96       7.85
C       0.98       2.25      10.96
C      -0.82       1.11      12.27
C       0.26       0.91      11.19
C       7.36       5.56       5.20
C       5.28       9.50       0.99
C       1.71       2.69      12.25
C       3.74       9.53       1.00
C       4.92      -4.85       9.13
C       1.35       8.23       8.38
C       3.48      -4.81       9.12
C       8.38       4.96       4.44
C      -1.66       8.55       8.23
C       9.66       3.04       3.55
C       8.67       3.56       4.32
C      10.23       1.71       3.68
C       0.33       0.12       8.69
C       9.80       0.73       4.52
C      -6.86       4.74      12.47
C      -2.64      12.76       1.27
C      -6.89       5.67      11.37
C      -7.41       6.94      11.34
C      -0.25       0.22       9.96
C       9.15       6.07       4.02
C      -1.28      -0.72       9.93
C       0.64      -3.84       8.12
C       7.08       7.35       8.75
C      -7.40       7.74      10.11
C      -3.69       9.53       1.87
C       5.58      11.85       0.02
C       5.55      -3.85      10.00
C      -3.94      -6.45      12.41
C       9.18      -1.42       6.86
C      10.37      -1.24       6.05
C       7.29      10.10       2.50
C       3.53       7.61       7.16
C       1.36      -1.39       3.73
C      -3.45      10.70       2.69
Br       5.19       6.75       2.06
Br      -2.42       2.07      11.55
N      -3.08      -4.44       8.76
N       7.51       6.90       5.22
N      -0.32      -0.82       7.96
N       8.63       7.21       4.49
N      -1.32      -1.34       8.74
N      -0.42      -3.69       7.25
N       7.09       8.43       7.96
N      11.51      -1.91       6.36
N       7.59       9.96       3.81
N       4.45       8.33       6.50
N       0.79      -2.24       4.62
N      -3.83      10.59       3.99
N       4.14       9.69       6.60
N      -2.08      -1.51       5.53
N       6.44       9.68       4.48
N      -4.77       9.18       6.45
O      10.26       8.55       2.30
O       1.04       4.97      11.74
O       6.74      -3.53      10.10
O       0.16       1.06       1.13
O       8.11      -0.84       6.68
