318

Ni      18.06      18.80      22.01
Ni      13.67       9.40      11.01
Ni      11.21      18.45      11.01
Ni       6.59       9.74      22.01
H      10.56      16.34      12.10
H       9.81       1.63       1.78
H       5.99       3.19      19.42
H      13.61       2.71      19.92
H       2.36       2.63       1.04
H       7.57       4.07      21.65
H       7.95       2.01      20.62
H       3.05       0.52       0.12
H      12.75       3.87      21.74
H       9.40       3.84       1.00
H       6.97       1.76       0.96
H       7.60       2.38       2.51
H      11.37      18.69      19.14
H       9.60      18.70      18.95
H      12.92      16.51       8.02
H      11.23      16.93       8.51
H      14.81      17.30       9.56
H       9.95       0.46      10.72
H       9.39       1.93       8.90
H      10.23       0.75       7.86
H      10.82      16.53      14.46
H      11.94      17.89      14.22
H      12.70      15.38      12.78
H      13.40      17.01      12.61
H      13.76      15.57      10.56
H      12.00      15.42      10.39
H       8.60      17.41       7.72
H       6.78      16.79       6.10
H       5.30      13.88       8.91
H       7.16      14.46      10.47
H      12.75      14.15       7.64
H       4.67      13.05       6.91
H      11.03      15.23       6.26
H      12.19      15.91       5.07
H       9.00      14.05       2.55
H       7.16      15.48       1.65
H       3.86       0.51       4.36
H      10.10      17.23       5.26
H      15.10      11.80      21.04
H       4.95       7.77       9.23
H       5.99       6.93      13.62
H       4.31       7.38      13.09
H       6.80       6.81       9.99
H       7.61       6.07      11.39
H       7.94       8.13      12.44
H       7.45       8.93      10.91
H      12.78       6.19      11.26
H       4.58       5.56      10.00
H      11.39       7.60      10.03
H      12.05       6.99       8.49
H       6.96       9.55      13.89
H       5.18       9.51      14.07
H       3.81      10.97       2.98
H      11.41      10.49       2.54
H       5.69      10.25       1.35
H       5.16       8.94       0.24
H       4.79       7.49       2.12
H       5.58       8.75       3.11
H      15.43      11.77      18.69
H       7.30      10.42      18.86
H       7.87      12.89      20.33
H       8.68      11.31      20.47
H       4.57      11.98       0.57
H      12.09      12.07       0.72
H       8.66      10.22       3.40
H       6.82      10.83       4.99
H       5.33      13.67       2.11
H       7.22      13.09       0.57
H      12.75      13.40       3.38
H       4.66      14.52       4.10
H      11.04      12.33       4.77
H      12.20      11.66       5.96
H       8.98      13.51       8.45
H       7.15      12.06       9.36
H       8.28       8.92       6.68
H      10.15      10.33       5.79
H       7.50       2.46       9.91
H       8.25      17.17      20.23
H      12.07      15.61       2.59
H       4.45      16.09       2.09
H      15.70      16.17      20.97
H      10.49      14.73       0.36
H      10.11      16.79       1.39
H      15.01      18.28      21.89
H       5.32      14.92       0.27
H       8.66      14.96      21.01
H      11.10      17.04      21.05
H      10.46      16.42      19.50
H       6.69       0.10       2.87
H       8.46       0.10       3.06
H       5.14       2.29      13.99
H       6.83       1.87      13.50
H       3.25       1.50      12.45
H       8.11      18.34      11.29
H       8.67      16.87      13.11
H       7.83      18.05      14.15
H       7.24       2.27       7.55
H       6.12       0.90       7.79
H       5.36       3.42       9.23
H       4.66       1.78       9.40
H       4.30       3.23      11.45
H       6.06       3.38      11.62
H       9.46       1.39      14.29
H      11.28       2.00      15.91
H      12.76       4.92      13.10
H      10.90       4.34      11.54
H       5.32       4.64      14.37
H      13.39       5.74      15.10
H       7.03       3.57      15.75
H       5.87       2.89      16.94
H       9.07       4.74      19.46
H      10.91       3.31      20.36
H      14.20      18.29      17.65
H       7.96       1.57      16.75
H       2.96       7.00       0.97
H      13.11      11.02      12.78
H      12.08      11.87       8.39
H      13.75      11.42       8.92
H      11.26      11.99      12.02
H      10.45      12.73      10.62
H      10.12      10.67       9.57
H      10.61       9.87      11.10
H       5.28      12.61      10.75
H      13.48      13.24      12.01
H       6.67      11.20      11.98
H       6.01      11.81      13.52
H      11.10       9.25       8.12
H      12.88       9.29       7.94
H      14.25       7.83      19.03
H       6.65       8.31      19.47
H      12.37       8.55      20.66
H      12.90       9.85      21.77
H      13.27      11.31      19.89
H      12.48      10.05      18.90
H       2.64       7.03       3.32
H      10.76       8.37       3.15
H      10.19       5.90       1.68
H       9.38       7.49       1.54
H      13.49       6.82      21.44
H       5.97       6.73      21.29
H       9.40       8.58      18.61
H      11.25       7.97      17.02
H      12.73       5.12      19.90
H      10.84       5.71      21.44
H       5.31       5.40      18.63
H      13.40       4.28      17.91
H       7.02       6.47      17.25
H       5.86       7.14      16.05
H       9.08       5.29      13.56
H      10.91       6.74      12.65
H       9.78       9.88      15.33
H       7.91       8.47      16.22
C       5.36       2.81      20.24
C       6.82       3.33      21.95
C       7.15       1.93      21.37
C       9.26       3.00       0.30
C       7.75       1.62       1.72
C      10.41      18.58      19.68
C      12.28      17.23       8.56
C      14.03      18.04       9.81
C       9.43       0.87       8.59
C      11.03      17.41      13.83
C      12.62      16.34      12.23
C      12.80      16.08      10.74
C       9.09      16.30      10.16
C       7.99      15.96       9.20
C       7.87      16.63       7.96
C       6.87      16.30       7.07
C       5.93      15.31       7.41
C       6.03      14.64       8.64
C       7.06      14.97       9.52
C      13.36      13.96       6.75
C      11.59      15.03       5.33
C       9.66      15.55       3.94
C       8.82      15.06       2.94
C       7.80      15.85       2.45
C       7.57      17.14       2.95
C       8.40      17.61       3.97
C       9.45      16.83       4.47
C       6.46      17.98       2.36
C       5.36       7.29      12.78
C       6.84       6.79      11.08
C       7.15       8.20      11.67
C       4.42       6.40      10.70
C      12.18       7.75       9.28
C       6.00       9.65      13.35
C       3.18      10.22       2.47
C       4.92       9.48       1.16
C       4.77       8.55       2.39
C       6.37      10.85      19.25
C       7.87      11.93      20.87
C       3.63      11.45       0.35
C       9.17      11.23       0.96
C       8.05      11.62       1.89
C       7.93      10.98       3.13
C       6.90      11.31       4.01
C       5.96      12.28       3.64
C       6.06      12.92       2.40
C       7.11      12.59       1.54
C      13.36      13.60       4.27
C      11.59      12.54       5.69
C       9.67      12.01       7.09
C       8.82      12.50       8.08
C       7.80      11.70       8.57
C       7.60      10.40       8.08
C       8.44       9.93       7.06
C       9.49      10.72       6.56
C       6.50       9.55       8.66
C      12.70      15.98       1.77
C      11.24      15.46       0.06
C      10.91      16.87       0.64
C       8.80      15.80      21.71
C      10.31      17.18      20.29
C       7.65       0.22       2.33
C       5.78       1.56      13.45
C       4.03       0.76      12.21
C       8.64      17.92      13.42
C       7.03       1.38       8.18
C       5.45       2.46       9.78
C       5.26       2.72      11.27
C       8.97       2.49      11.85
C      10.07       2.83      12.81
C      10.19       2.17      14.05
C      11.20       2.50      14.94
C      12.13       3.49      14.60
C      12.03       4.16      13.37
C      11.00       3.83      12.49
C       4.70       4.83      15.27
C       6.47       3.77      16.68
C       8.40       3.24      18.07
C       9.24       3.74      19.07
C      10.26       2.95      19.56
C      10.49       1.66      19.06
C       9.66       1.18      18.04
C       8.61       1.96      17.54
C      11.60       0.82      19.65
C      12.70      11.51       9.23
C      11.22      12.00      10.93
C      10.91      10.60      10.34
C      13.65      12.40      11.31
C       5.88      11.05      12.73
C      12.06       9.15       8.66
C      14.88       8.57      19.54
C      13.14       9.32      20.85
C      13.29      10.24      19.62
C      11.70       7.95       2.76
C      10.19       6.87       1.14
C      14.43       7.34      21.66
C       8.89       7.56      21.05
C      10.01       7.18      20.12
C      10.14       7.82      18.88
C      11.16       7.49      18.00
C      12.10       6.52      18.37
C      12.00       5.87      19.61
C      10.95       6.21      20.47
C       4.70       5.19      17.74
C       6.47       6.26      16.32
C       8.39       6.79      14.92
C       9.24       6.30      13.93
C      10.26       7.10      13.44
C      10.46       8.40      13.94
C       9.62       8.87      14.95
C       8.57       8.08      15.45
C      11.56       9.25      13.35
C      12.48      13.78       5.51
C       5.58       5.01      16.50
N      11.31      16.99      12.44
N      12.73      17.35       9.98
N       8.13       0.45       8.01
N       5.89       1.51      20.72
N       9.06       1.74       1.06
N       5.49       3.70      21.38
N      15.89      11.20      20.68
N       3.59      10.14       1.04
N       3.46       8.91       3.00
N       5.87       8.61      12.31
N       4.20       7.65       9.95
N       5.52       6.41      11.65
N       6.75       1.81       9.57
N       5.33       1.45      12.03
N       9.93      18.35      14.00
N      12.17      17.29       1.29
N       9.00      17.05      20.95
N      12.57      15.10       0.63
N       2.17       7.60       1.34
N      14.47       8.66      20.98
N      14.60       9.89      19.01
N      12.19      10.19       9.70
N      13.86      11.15      12.06
N      12.54      12.39      10.36
O       9.72      17.40       9.91
O       9.31      15.52      11.13
O       4.95      15.07       6.49
O      10.68      14.70       4.27
O       1.83       1.00       2.87
O       5.88      17.44       1.34
O       9.80      10.17       1.29
O      13.81      12.65      21.96
O       4.96      12.51       4.54
O      10.68      12.86       6.75
O       6.25       8.42       8.16
O       5.90      10.08       9.67
O       8.34       1.40      12.10
O       8.75       3.28      10.88
O      13.11       3.73      15.52
O       7.38       4.09      17.74
O      16.23      17.80      19.15
O      12.19       1.35      20.67
O       8.26       8.63      20.73
O       4.25       6.15       0.05
O      13.10       6.29      17.47
O       7.38       5.93      15.26
O      11.81      10.38      13.85
O      12.17       8.72      12.34
