49

Zn       5.06       6.01       7.34
Zn       7.91       5.37       7.04
H       7.67       1.20       6.83
H       9.21       6.37       9.19
H       1.67       4.88       6.01
H      10.70       3.22       4.67
H       9.07       3.57       5.27
H      10.26       2.78       6.35
H       4.64       1.47       7.24
H       2.90       5.30       8.33
H      10.04      10.44       5.90
H       5.62       9.58       8.03
H      10.92       8.24       6.56
H       3.65       9.04       6.80
H       2.65       9.26       5.34
H       3.67       7.81       5.51
C       6.02       3.17       7.20
C       7.10       8.21       7.19
C       6.70       5.73       9.84
C       6.13       5.78       3.17
C       6.06       5.77       1.95
C       6.00       5.74       0.61
C       7.01       5.95      13.83
C       6.94       5.89      12.49
C       3.04       8.52       6.05
C      10.13       3.53       5.55
C       6.86       5.82      11.27
C       8.38      10.40       6.83
C       7.29       9.68       7.24
C       6.65       0.81       6.94
C       5.69       1.73       7.15
C       2.00       6.74       7.42
C      10.61       6.20       7.84
C       6.26       5.76       4.61
N       3.10       6.10       7.72
N       9.98       5.32       7.10
N       1.91       7.84       6.67
N      10.59       4.86       5.92
O       5.04       3.98       7.07
O       6.21      10.34       7.77
O      10.13       6.74       8.95
O       7.24       3.51       7.36
O       5.31       6.28       5.28
O       7.32       5.23       5.06
O       5.94       7.84       7.64
O       8.01       7.44       6.77
O       5.53       5.61       9.39
O       7.77       5.80       9.13
O       9.49       9.75       6.30
