62

Zn       7.24       5.57       7.48
Zn       4.50       5.79       7.66
H       7.27      10.12       7.98
H       8.79       6.45       0.97
H       4.21      10.10       7.61
H       7.69       6.37       4.27
H       1.04       7.12       5.64
H       2.89       5.21      10.04
H       1.73       5.28       2.49
H      10.14       5.93      12.57
H       3.59       1.45       7.98
H       6.46       1.17       6.91
H       9.63       7.15       8.31
H       9.69       4.79       6.55
H       3.51       5.34       3.44
H       3.10       4.73      14.12
H       4.19       4.97      11.94
H       8.38       5.82      11.64
C       5.57       3.11       7.34
C       5.14       5.18      12.43
C       6.28       5.41      11.66
C       6.18       5.45      10.17
C       7.51       5.67      12.28
C       5.20      10.56       7.69
C       6.26       9.74       7.82
C       4.49       0.91       7.67
C       5.55       1.64       7.28
C      10.05       6.35       7.69
C       1.52       6.38       7.34
C       6.69       6.01       1.27
C       6.13       8.26       7.77
C       5.61       5.88       4.93
C       6.74       6.10       2.68
C       5.57       5.85       3.44
C       4.37       5.53       2.80
C       4.27       5.45       1.40
C       5.45       5.68       0.63
C       2.05       5.54       9.41
C       1.77       4.89       1.45
C      10.13       6.25      13.64
C       3.04       5.10       0.72
C       4.05       4.96      14.62
C       5.20       5.21      13.83
C       6.45       5.53      14.47
C       7.62       5.74      13.68
C       8.86       6.07      14.37
C       7.85       6.22       0.48
N       9.25       5.51       7.13
N       2.47       5.97       8.12
O       6.70       3.66       7.06
O       1.84       6.84       6.14
O      10.86       5.58       9.78
O       0.78       4.34       0.97
O      11.16       6.71      14.14
O       4.51       3.73       7.67
O       7.24       5.25       9.50
O       5.03       5.69       9.68
O       7.22       7.60       7.86
O       4.96       7.76       7.62
O       6.76       6.11       5.48
O       4.54       5.69       5.58
O       7.90       6.42       3.27
