184

Zr      13.89      11.46      10.25
Zr       9.72       9.08      11.85
Zr      12.91       9.78      13.19
Zr      10.67      10.81       8.93
Zr      12.66       8.13      10.07
Zr      10.90      12.47      12.06
Zr       3.50       1.43       2.18
Zr       9.68      19.71       0.34
Zr       6.75       2.75       1.81
Zr       6.40      18.36       0.62
Zr      12.07       1.64      17.87
Zr       8.20      19.56       3.51
H      16.22      13.74       5.32
H       2.93      15.39       3.63
H      19.57       7.54      15.54
H      17.72       6.36      17.15
H      13.20       9.95       7.95
H      11.62       7.29      12.83
H       8.64      11.52      10.68
H      13.52      12.61      12.90
H      13.42       5.87      11.08
H      13.22      11.33      15.58
H      10.44      13.23      14.54
H      13.03       7.35       7.46
H      11.39       8.52       7.41
H       9.89      13.36       8.02
H       8.85      14.13      11.39
H      11.60       5.90       9.32
H       8.78       6.87      10.47
H      15.13      13.72      10.93
H      11.60      14.91      11.09
H      11.11       9.74       6.32
H      10.33       6.50      10.80
H      13.90       8.22      15.23
H      14.86       6.42      10.70
H       9.55      13.37       9.62
H      11.96      11.96      14.71
H      13.05      14.15      11.08
H       5.78       8.16       3.59
H       6.84       9.87       5.44
H      19.44      15.97      17.01
H      21.43      14.55      15.76
H       9.66       0.37      18.65
H      14.80       2.43      18.01
H       8.83      17.40       1.70
H       5.51       2.18       4.32
H      11.89       4.45      17.33
H       8.63       4.12       3.31
H       8.09       0.07       5.39
H      11.43       0.23      15.69
H      11.45      17.80      17.85
H       5.47      16.49       2.23
H       8.47      16.82       4.14
H      13.36       2.46      15.71
H      16.95       0.30      17.64
H       2.53       1.94       4.63
H       6.99      19.95       5.89
H      12.60      19.25      16.88
H      18.05      18.98      17.05
H       7.90       4.71       0.42
H      13.14       4.32      18.36
H       7.10      17.01       3.20
H       7.16       4.62       3.70
H       3.86       0.28       4.85
C      14.51      14.97       4.73
C      15.84      14.57       4.73
C      16.55      15.40       3.85
C      15.66      16.35       3.34
C      20.90       5.95      16.27
C      19.71       6.67      16.17
C      18.75       6.07      17.02
C      19.34       4.96      17.64
C      15.58       9.02       8.80
C      12.76      12.59       7.30
C      15.76      11.31      12.97
C       9.57       6.91      14.20
C       7.97      11.43      13.17
C       7.72       9.59       9.35
C       4.23       7.83       5.10
C       5.37       8.44       4.55
C       5.90       9.33       5.49
C       5.10       9.28       6.64
C      18.11      14.60      15.94
C      19.35      15.14      16.32
C      20.36      14.42      15.68
C      19.75      13.43      14.91
C       9.21       3.00      18.53
C       3.35      18.94       1.74
C       4.14       4.45       3.20
C       9.91       2.38       0.75
C      11.19      18.22       2.76
C      15.82      16.95      17.95
C      16.90      15.10      16.41
C      16.26      15.90      17.08
C       3.72       5.66       3.88
C       3.66       6.68       4.56
C      16.71       8.66       7.96
C      17.60       8.40       7.16
C       5.57       9.56       7.91
C       6.40       9.70       8.80
C      16.75      12.06      13.73
C      17.47      12.78      14.39
C       6.72      11.89      13.69
C      20.44      12.48      14.17
C       6.99       4.15      17.66
C       8.01       3.60      18.01
C      18.71       4.02      18.46
C      10.98       3.17       0.17
C       7.45       6.17      15.64
C       8.47       6.45      15.02
C      16.80      18.26       2.08
C      16.04      17.47       2.61
C      13.28      16.76       3.55
C      12.33      17.43       3.19
C      13.04      13.53       6.27
C      13.51      14.33       5.46
N      14.38      16.07       3.86
N      20.67       4.90      17.18
N       4.01       8.41       6.37
N      18.36      13.54      15.06
O      14.34      13.48      10.43
O      15.50      10.24       9.16
O      15.70      11.52      11.71
O      11.59      12.05       7.33
O      15.00      10.54      13.65
O      13.73      12.35       8.09
O      14.75       8.09       9.07
O      13.58       9.62      11.25
O      12.81      10.02       8.83
O      13.07      11.93      12.39
O      11.86      11.90      10.22
O       9.50      12.82       8.73
O      14.06       6.60      11.23
O      10.83       9.08      10.05
O      11.76       8.07      12.22
O      10.98      10.45      12.75
O       9.53      11.16      10.81
O      13.35       8.33      14.45
O      10.62       6.26      14.06
O       9.30       8.06      13.64
O      12.20      14.36      11.62
O       8.08      10.22      12.82
O      12.47      11.08      15.01
O      11.27      13.07      14.05
O       9.72      13.93      11.00
O       8.87      12.35      13.11
O       9.44       6.88      11.18
O      10.77       9.36       7.14
O       7.93       8.97      10.44
O       8.60      10.14       8.60
O      12.24       7.51       8.00
O      11.71       6.19      10.25
O       2.87       1.16       4.16
O       2.16       2.58       0.81
O       3.29       3.53       3.01
O       4.23      18.14       1.27
O       5.38       4.44       2.88
O       1.59       0.22       1.98
O      10.18       2.84      17.72
O       5.02       2.29       0.95
O       3.51       0.39       0.13
O       5.56       1.78       3.44
O       6.43      19.64       2.34
O       6.38      16.72       2.00
O      12.67       3.91      17.54
O      14.78      19.78      18.57
O      14.24       1.94      18.64
O       7.38       0.75       2.06
O       8.50      18.31       1.61
O       6.98       4.50       0.67
O       9.09       3.01       1.51
O       9.81       1.16       0.40
O       6.53      19.61       5.10
O      11.20      18.61       1.54
O       7.75       3.83       3.63
O       7.15       0.28       5.23
O       7.69      17.39       4.02
O      10.28      18.44       3.62
O      17.97      19.91      17.34
O      12.39      18.04      17.78
O      16.74      17.84      18.17
O      14.66      16.92      18.45
O      10.88       0.24      16.50
O      12.91       1.67      16.03
