56

Al       7.67      14.51       7.21
Al       4.35      14.51       7.21
H       9.31      13.21       6.01
H       3.04       3.57       8.41
H       4.74      13.85      11.02
H       5.28      12.58      13.11
H       8.19      10.49      12.74
H       4.16       6.30       1.68
H       7.07       4.21       1.31
H       7.62       2.93       3.41
H       6.73      10.81      11.02
H       7.50      11.18       9.46
H       6.63      12.44      10.31
H       5.73       4.35       4.12
H       4.86       5.61       4.97
H       5.62       5.98       3.40
C       5.98      12.13       6.94
C       3.05       3.11       4.97
C       6.37       4.65       7.48
C       9.30      13.67       9.45
C       9.48      12.89      10.71
C      10.68      13.11      11.42
C      10.99      12.41      12.57
C      10.08      11.45      13.03
C       8.87      11.24      12.34
C       8.55      11.93      11.17
C       3.48       5.55       2.08
C       2.27       5.34       1.39
C       1.36       4.38       1.86
C       1.67       3.67       3.01
C       2.87       3.89       3.71
C       3.80       4.86       3.25
C       5.29       6.97       7.87
C       7.07       9.82       6.55
C       6.29       6.12       7.42
C       6.07      10.67       7.00
C       6.78       8.46       6.87
C       5.57       8.32       7.56
C       7.28      11.57      10.46
C       5.07       5.21       3.97
S       7.57       6.96       6.61
S       4.78       9.82       7.82
N      10.27      10.64      14.17
N       2.08       6.15       0.25
Cl       3.88       6.52       8.74
Cl       8.47      10.27       5.68
O       7.04      12.78       6.66
O       2.01       2.52       5.43
O       7.52       4.15       7.22
O       8.15      13.71       8.90
O       5.31       4.00       7.75
O      10.34      14.26       8.99
O       4.84      12.64       7.21
O       4.20       3.07       5.52
O       9.33      14.05       6.49
O       3.02       2.73       7.93
