154

Zn      10.90       6.29       4.45
Zn       9.29       3.52       4.45
Zn       7.69       6.29       4.45
Zn       9.29       5.37       1.83
Zn      26.28      15.17      10.73
Zn      27.88      17.95      10.73
Zn      27.88      16.10      13.34
Zn      29.49      15.17      10.73
H      21.23      16.34       6.13
H      14.17       6.16       7.59
H      15.95      11.23      13.36
H      23.01       9.21       3.28
H      15.06       7.66       3.28
H      20.34      12.77      13.36
H      16.84      16.85       7.59
H      22.12       5.64       6.13
H      19.48       8.20      13.36
H      17.70      15.33       3.28
H      12.42      10.22       6.13
H      24.76       9.19       7.59
H      16.84       4.62       7.59
H      22.12      15.82       9.04
H      15.06      13.80      11.90
H      20.34       8.69       1.82
H      24.76      12.28       7.59
H      12.42      11.25       9.04
H      17.70       6.14      11.90
H      19.48      13.27       1.82
H      14.17      15.31       7.59
H      21.23       5.13       9.04
H      23.01      12.26      11.90
H      15.95      10.24       1.82
H      15.95       5.13       9.04
H      23.01      15.31       7.59
H      21.23      10.24       1.82
H      14.17      12.26      11.90
H      22.12      13.80      11.90
H      16.84       8.69       1.82
H      20.34       4.62       7.59
H      15.06      15.82       9.04
H      17.70      13.27       1.82
H      19.48       6.14      11.90
H      24.76      11.25       9.04
H      12.42      12.28       7.59
H      20.34      16.85       7.59
H      15.06       5.64       6.13
H      22.12       7.66       3.28
H      16.84      12.77      13.36
H      12.42       9.19       7.59
H      24.76      10.22       6.13
H      19.48      15.33       3.28
H      17.70       8.20      13.36
H      23.01       6.16       7.59
H      15.95      16.34       6.13
H      14.17       9.21       3.28
H      21.23      11.23      13.36
C      22.16      18.06       7.18
C      21.34      16.78       7.13
C      14.03       3.98       7.18
C      14.73       5.33       7.13
C      15.02      12.79      14.63
C      15.84      12.32      13.44
C      23.15       8.10       1.36
C      22.45       8.50       2.65
C      14.03       8.10       1.36
C      14.73       8.50       2.65
C      22.16      12.79      14.63
C      21.34      12.32      13.44
C      15.02      18.06       7.18
C      15.84      16.78       7.13
C      23.15       3.98       7.18
C      22.45       5.33       7.13
C      18.59       6.61      14.63
C      18.59       7.56      13.44
C      18.59      16.00       1.36
C      18.59      15.20       2.65
C      10.46      10.16       7.18
C      11.98      10.09       7.13
C      26.71      10.16       7.18
C      25.20      10.09       7.13
C      15.02       3.41       7.99
C      15.84       4.68       8.05
C      23.15      17.48       7.99
C      22.45      16.14       8.05
C      14.03      13.36      13.82
C      14.73      12.96      12.53
C      22.16       8.67       0.55
C      21.34       9.15       1.73
C      26.71      11.30       7.99
C      25.20      11.38       8.05
C      10.46      11.30       7.99
C      11.98      11.38       8.05
C      18.59       5.47      13.82
C      18.59       6.27      12.53
C      18.59      14.85       0.55
C      18.59      13.90       1.73
C      14.03      17.48       7.99
C      14.73      16.14       8.05
C      22.16       3.41       7.99
C      21.34       4.68       8.05
C      23.15      13.36      13.82
C      22.45      12.96      12.53
C      15.02       8.67       0.55
C      15.84       9.15       1.73
C      11.85       3.89       5.88
C      12.90       3.29       6.74
C       6.74       6.84       1.71
C       5.69       7.45       0.85
C      11.85       6.84       1.71
C      12.90       7.45       0.85
C       6.74       3.89       5.88
C       5.69       3.29       6.74
C       9.29       2.41       1.71
C       9.29       1.21       0.85
C       9.30       8.32       5.88
C       9.29       9.53       6.74
C      25.33      17.57       9.30
C      24.28      18.18       8.44
C      30.44      14.62      13.47
C      31.49      14.02      14.33
C      27.88      13.15       9.30
C      27.88      11.94       8.44
C      27.88      19.05      13.47
C      27.88      20.26      14.33
C      30.44      17.57       9.30
C      31.49      18.18       8.44
C      25.33      14.62      13.47
C      24.28      14.02      14.33
O       9.30       5.37       3.79
O      27.88      16.10      11.38
O      12.02       5.11       5.55
O      10.87       3.14       5.55
O       6.57       6.94       2.97
O       7.72       6.28       1.11
O      10.87       6.28       1.11
O      12.02       6.94       2.97
O       6.57       5.11       5.55
O       7.72       3.14       5.55
O       9.29       2.22       2.97
O       9.29       3.54       1.11
O       8.15       7.85       5.55
O      10.44       7.85       5.55
O      25.16      16.35       9.63
O      26.31      18.33       9.63
O      29.46      15.19      14.07
O      30.61      14.53      12.21
O      29.03      13.62       9.63
O      26.74      13.62       9.63
O      27.88      17.92      14.07
O      27.88      19.24      12.21
O      29.46      18.33       9.63
O      30.61      16.35       9.63
O      26.31      15.19      14.07
O      25.16      14.53      12.21
