140

Al       5.16       7.17       6.43
Al       1.64      21.51      19.27
Al       1.82       7.17       6.42
Al       4.98      21.51      19.29
H       2.03      18.13      16.94
H       4.74      10.55       8.73
H       5.34      24.07      22.56
H       1.40       4.62       3.22
H       1.99      16.26      15.28
H       4.77      12.43      10.37
H       5.23      25.90      24.27
H       1.44       2.81       1.49
H       5.02      12.55      12.87
H       1.73      16.17      12.78
H       2.40       7.50      25.07
H       4.25      21.23       0.60
H       0.97      12.94       1.91
H       5.87      15.73      23.79
H       4.20      24.78      10.90
H       2.63       3.89      14.81
H       4.45      10.95       0.55
H       2.38      17.72      25.15
H       1.13       3.50      12.42
H       5.69      25.17      13.29
H       3.54      17.75      14.33
H       4.31      16.52      13.44
H       2.43      12.20      12.24
H       3.22      10.97      11.37
H       6.73      26.47      22.76
H       0.73      27.42      24.00
H       5.90       1.13       1.69
H       6.65       2.07       2.92
H       4.55      18.88      16.18
H       2.23       9.82       9.52
H       1.25      24.85      21.52
H       5.55       3.89       4.03
H       4.87      14.41      14.49
H       1.88      14.31      11.16
H       2.18       5.60      23.51
H       4.45      23.12       2.16
H       5.31      13.67       0.46
H       1.52      15.01      25.24
H       1.91      24.17      12.45
H       4.91       4.51      13.25
H       3.49       8.81       5.82
H       3.31      19.87      19.88
H       0.16       5.56       7.08
H       6.63      23.11      18.61
C       3.51       5.78       8.42
C       3.29      22.89      17.29
C       0.13       8.55       4.44
C       6.68      20.13      21.27
C       3.46       5.38       4.80
C       3.33      23.31      20.89
C       0.17       8.98       8.03
C       6.61      19.69      17.67
C       1.13      17.88      16.39
C       5.65      10.80       9.28
C       4.43      24.66      22.71
C       2.31       4.04       3.02
C       1.09      16.85      15.46
C       5.67      11.84      10.20
C       4.36      25.68      23.65
C       2.34       3.04       2.06
C       6.59      16.53      14.75
C       0.16      12.18      10.91
C       3.21      26.48      23.81
C       3.49       2.26       1.83
C       5.42      17.28      15.00
C       1.35      11.43      10.68
C       2.06      26.17      23.03
C       4.68       2.58       2.54
C       5.45      18.30      15.96
C       1.33      10.40       9.73
C       2.13      25.11      22.11
C       4.65       3.62       3.49
C       6.62      18.61      16.65
C       0.16      10.08       9.04
C       3.30      24.38      21.93
C       3.47       4.32       3.75
C       5.67      14.40      13.75
C       1.08      14.32      11.90
C       2.67       5.45      24.47
C       3.98      23.28       1.19
C       5.75      13.35      12.84
C       0.99      15.36      12.81
C       2.81       6.52      25.34
C       3.85      22.21       0.31
C       0.12      13.29      11.89
C       6.63      15.43      13.76
C       3.41       1.13       0.88
C       3.26      27.60      24.77
C       0.56      12.40       1.05
C       6.27      16.27      24.65
C       3.86      25.33      11.78
C       2.96       3.34      13.93
C       5.94      12.79       0.27
C       0.90      15.89      25.43
C       2.58      25.01      12.62
C       4.24       3.66      13.09
C       6.68      19.31      22.45
C       0.13       9.37       3.25
C       3.32      23.71      16.10
C       3.49       4.97       9.60
C       1.38      17.38      25.41
C       5.46      11.30       0.29
C       4.69      25.57      13.08
C       2.13       3.11      12.62
C       6.76      17.78      24.59
C       0.08      10.89       1.11
C       3.41      25.23      13.95
C       3.41       3.45      11.75
C       6.71      18.61      23.45
C       0.12      10.07       2.26
C       3.36      24.40      15.10
C       3.45       4.27      10.60
N       4.23      17.01      14.33
N       2.53      11.72      11.36
N       0.89      26.91      23.13
N       5.88       1.96       2.26
O       2.32       5.85       5.13
O       4.48      22.82      20.60
O       5.72       8.63       7.54
O       1.07      20.04      18.16
O       4.65       6.18       8.01
O       2.14      22.48      17.68
O       1.26       8.31       4.97
O       5.55      20.36      20.73
O       4.58       5.71       5.31
O       2.22      22.97      20.36
O       1.31       8.50       7.71
O       5.48      20.18      17.99
O       5.67       8.15       4.85
O       1.14      20.53      20.86
O       2.38       6.03       7.88
O       4.41      22.66      17.85
O       3.49       7.98       6.33
O       3.31      20.70      19.38
O       0.15       6.36       6.53
O       6.65      22.32      19.17
