128

Zn       7.51      10.06       8.79
Zn       7.48       6.97       8.73
H       6.00      10.52       4.66
H       4.55      15.63       8.49
H       3.78      16.91      10.49
H       2.39      16.12       9.70
H       3.08      15.43      11.19
H       7.95       2.87       5.20
H       7.24       1.38       5.88
H       9.25       0.07       5.19
H       8.56       0.90       3.78
H      10.02       1.55       4.56
H      11.05      14.11       8.25
H       6.35       6.61      12.69
H      10.40      15.60       9.00
H      11.04       0.06       6.99
H      12.48      16.10       7.67
H      11.69      15.46       6.20
H       6.71       2.97      12.34
H       7.47       1.47      11.74
H       5.44       0.16      12.37
H       6.07       1.03      13.79
H       4.63       1.65      12.94
H       5.08      13.15      11.77
H       7.98      10.54      13.20
H       6.32      11.86      12.01
H       4.59      10.11      11.58
H       4.08      11.15      12.94
H       3.35      11.36      11.32
H      10.53       3.79       6.69
H      10.67       5.18       7.84
H      10.39       6.78       5.94
H      11.79       5.72       5.64
H      10.25       5.43       4.79
H       9.73      13.18       5.75
H       7.76       6.62       4.65
H       8.50      11.87       5.60
H      10.27      10.14       5.94
H      10.70      11.19       4.55
H      11.51      11.41       6.13
H       4.13       3.81      10.45
H       4.17       5.25       9.36
H       4.14       6.76      11.36
H       2.72       5.69      11.35
H       4.08       5.34      12.45
H       4.99      11.45       2.84
H       5.57       5.34      14.44
H       8.14      11.58      15.16
H       7.79       5.26       2.87
H       3.82      14.13       9.14
C       7.37       8.67      11.31
C       8.15       4.20       7.87
C       8.39      12.83       8.08
C       6.61       4.21       9.64
C       7.42      14.93       8.78
C       7.39       2.09       8.78
C       7.41      16.34       8.78
C       7.39       0.68       8.78
C       4.93       8.30       8.65
C      10.05       8.27       8.86
C       3.49       8.33       8.68
C       7.34       8.74       6.23
C      11.49       8.30       8.86
C       2.26       8.36       8.72
C      12.72       8.33       8.84
C       0.93       8.36       8.77
C      14.06       8.36       8.81
C       5.89       9.46       2.78
C       6.31       7.37      14.71
C       7.31       9.58      15.02
C       6.96       7.27       2.75
C       6.27       9.61       4.12
C       6.10       8.24       0.66
C       6.60       7.45      13.35
C       7.51       9.65      13.63
C       7.26       7.42       4.11
C       6.97       8.60       4.79
C       7.17       8.59      12.79
C       6.28       8.31       2.05
C       6.68       8.43      15.59
C       5.07      10.54       2.19
C       5.59       6.17      15.19
C       7.81      10.72      15.81
C       6.49       8.34      16.97
C       7.41       6.01       2.12
C       4.26      15.11       9.41
C       3.32      15.94      10.25
C       8.19       1.89       5.64
C       9.06       1.05       4.74
C      10.61      15.10       8.04
C      11.51      15.95       7.17
C       6.51       1.98      11.92
C       5.61       1.15      12.80
C       5.37      12.12      11.52
C       6.45      14.21       9.50
C       4.28      11.12      11.86
C      10.26       4.84       6.87
C      10.69       5.75       5.74
C       9.47      12.15       6.03
C      10.55      11.16       5.64
C       4.43       4.87      10.36
C       3.81       5.71      11.45
C       8.17       2.79       7.83
C       8.41      14.23       8.05
C       6.61       2.81       9.70
C       6.52      12.80       9.50
N       7.47      12.15       8.80
N       7.39       4.87       8.76
O       7.66       9.82      10.83
O       5.04       6.05      16.27
O       7.90      10.80      17.02
O       7.40       5.74       0.92
O       5.47      14.87      10.19
O       8.90       2.11       6.90
O       9.35      14.92       7.34
O       5.85       2.14      10.63
O       5.59      12.02      10.07
O       8.80       4.96       6.97
O       9.33      12.07       7.49
O       7.75       7.69       6.81
O       5.89       4.96      10.50
O       7.22       9.90       6.76
O       7.21       7.59      10.66
O       5.52       9.39       8.93
O       9.51       7.13       9.03
O       9.48       9.39       8.67
O       5.46       7.17       8.37
O       4.48      10.49       1.12
