68

Zn       6.29       5.48       9.42
Zn       3.55       5.47       9.64
H       2.96       9.81      10.32
H       8.34       1.07       9.56
H       7.75       1.22       7.87
H       1.44       6.64       7.87
H       8.31       4.54      12.45
H       8.37       3.06      11.44
H       1.11       4.44      12.62
H       3.08       5.99      16.42
H       3.01       5.48      13.98
H       6.94       6.18       2.87
H       6.87       5.65       5.32
H       2.59       5.88       5.27
H       2.64       6.40       2.82
H       3.03       1.25      10.37
C       5.09       2.89       9.67
C       5.08       5.92      13.64
C       4.84       6.65       1.28
C       5.14       6.80      17.87
C       5.99       6.10       3.40
C       5.96       5.81       4.76
C       4.73       5.74       5.44
C       3.53       5.94       4.74
C       3.56       6.23       3.38
C       4.79       6.33       2.70
C       6.17       0.63       9.33
C       4.96       5.66      12.16
C       5.07       1.40       9.70
C       3.90       0.68      10.06
C       3.87      10.33      10.03
C       4.97       9.56       9.61
C       6.12      10.28       9.27
C       7.54      10.19       8.73
C       7.60       0.71       8.83
C       0.68       4.83      10.46
C       0.83       6.13       8.62
C       9.18       6.15       8.57
C       4.91       8.07       9.53
C       9.05       4.88      10.40
C       8.83       4.03      11.63
C       0.66       3.98      11.73
C       4.74       5.50       6.92
C       6.26       6.33      14.26
C       6.31       6.62      15.63
C       5.16       6.51      16.44
C       3.97       6.08      15.81
C       3.94       5.80      14.45
N       3.92       6.97      18.45
N       3.68       6.82       0.59
N       6.04       6.91       0.70
N       6.28       7.01      18.56
N       1.48       5.45       9.59
N       8.38       5.55       9.45
O       6.23       3.45       9.70
O       3.96       3.48       9.60
O       6.03       5.70      11.47
O       3.79       5.44      11.72
O       6.01       7.49       9.23
O       3.80       7.50       9.75
O       5.86       5.21       7.45
O       3.64       5.63       7.56
F       7.42       6.49      13.59
F       8.46       9.51       9.50
F       7.66       9.70       7.45
F       8.59       6.81       7.57
F       7.49       7.02      16.13
F       1.19       2.70      11.59
