55

Al       4.27      12.01       6.95
H       2.49      22.14      12.82
H       2.48      17.84      12.88
H       2.50      19.94       9.13
H       1.01       9.68      10.28
H       0.93       7.56      11.55
H       3.42       5.70       8.56
H       3.48      13.77       0.73
H       1.00      10.28       3.24
H       0.97      10.27       0.76
H       1.21      16.49      11.67
H       3.58      15.95       7.36
H       3.69      18.12       8.54
H       4.07       8.71       6.80
H       0.28       7.06       6.86
H       4.06      13.77       4.23
H       4.29      14.55       2.78
H       0.72      13.34      10.04
H       4.31      14.35      11.37
C       2.27      12.01       4.88
C       2.29      13.75       8.03
C       2.27      10.18       7.96
C       2.45      19.99      13.02
C       2.48      21.18      12.29
C       2.53      21.19      10.89
C       2.52      19.95      10.22
C       2.48      18.74      10.92
C       2.45      18.78      12.32
C       1.56       8.80       9.92
C       1.52       7.62      10.64
C       2.17       6.47      10.14
C       2.86       6.56       8.93
C       2.94       7.76       8.20
C       2.26       8.89       8.71
C       2.90      13.03       1.28
C       2.95      13.04       2.68
C       2.26      12.03       3.38
C       1.56      11.03       2.68
C       1.55      11.02       1.29
C       2.22      12.02       0.57
C       1.76      16.37      10.73
C       1.66      15.13      10.06
C       2.33      14.99       8.81
C       3.05      16.09       8.30
C       3.10      17.30       8.95
C       2.45      17.45      10.20
N       3.62       7.82       6.99
N       3.62      14.06       3.36
N       0.98      14.10      10.66
O       3.23      10.99       8.20
O       3.21      11.39       5.46
O       3.20      13.56       7.15
O       1.34      10.40       7.12
O       1.35      12.90       8.25
O       1.32      12.62       5.48
