292

Fe       9.28       0.00      14.48
Fe       0.31      12.54       7.24
Fe       4.48       0.00      14.48
Fe       5.11      12.54       7.24
P       2.04       1.39      16.42
P       2.04      -2.37      14.71
P       2.04       0.99      12.31
P       7.55      11.16       5.30
P       7.55      14.92       7.01
P       7.55      11.56       9.41
P       2.75      14.03       5.39
P       2.75      13.40       9.46
P       2.75      10.19       6.88
P       6.84      -1.49      16.34
P       6.84      -0.86      12.26
P       6.84       2.35      14.85
H       4.25       1.89      18.26
H       4.25      -4.21      14.23
H       4.25       2.32      10.96
H       5.34      10.65       3.47
H       5.34      16.75       7.49
H       5.34      10.22      10.76
H       0.14       0.62      18.50
H       0.14      -3.79      13.01
H       0.14       3.17      11.94
H       9.44      11.92       3.22
H       9.44      16.33       8.71
H       9.44       9.37       9.79
H       0.57       3.56      17.78
H       0.57      -4.63      15.92
H       0.57       1.07       9.75
H       9.02       8.98       3.95
H       9.02      17.18       5.80
H       9.02      11.47      11.97
H       0.37       5.98      17.30
H       0.37      -5.43      18.26
H       0.37      -0.56       7.89
H       9.22       6.56       4.43
H       9.22      17.97       3.47
H       9.22      13.10      13.83
H       1.50       6.96      15.30
H       1.50      -4.19      20.10
H       1.50      -2.77       8.05
H       8.09       5.58       6.42
H       8.09      16.73       1.62
H       8.09      15.32      13.68
H       2.81       5.49      13.77
H       2.81      -2.13      19.59
H       2.81      -3.36      10.09
H       6.78       7.05       7.96
H       6.78      14.67       2.13
H       6.78      15.91      11.64
H       3.05       3.06      14.29
H       3.05      -1.36      17.24
H       3.05      -1.70      11.93
H       6.54       9.48       7.44
H       6.54      13.90       4.49
H       6.54      14.25       9.80
H       0.27       0.68      20.98
H       0.27      -5.96      11.83
H       0.27       5.28      10.65
H       9.32      11.86       0.75
H       9.32      18.51       9.90
H       9.32       7.26      11.08
H       4.39       1.93      20.72
H       4.39      -6.37      13.03
H       4.39       4.44       9.69
H       5.20      10.61       1.00
H       5.20      18.91       8.69
H       5.20       8.10      12.03
H       4.61      13.22       3.32
H       4.61      15.60       9.79
H       4.61       8.81       8.61
H       4.97      -0.68      18.40
H       4.97      -3.06      11.94
H       4.97       3.73      13.11
H       0.57      14.68       3.55
H       0.57      14.67      10.93
H       0.57       8.28       7.24
H       9.02      -2.13      18.17
H       9.02      -2.13      10.79
H       9.02       4.26      14.49
H       1.44      15.71       7.33
H       1.44      10.88       9.94
H       1.44      11.04       4.45
H       8.15      -3.17      14.39
H       8.15       1.66      11.78
H       8.15       1.51      17.28
H       1.66      18.13       7.93
H       1.66       9.16      11.74
H       1.66      10.34       2.06
H       7.93      -5.59      13.80
H       7.93       3.39       9.99
H       7.93       2.20      19.67
H       3.30      19.56       6.70
H       3.30       9.50      13.59
H       3.30       8.57       1.43
H       6.29      -7.02      15.02
H       6.29       3.04       8.14
H       6.29       3.97      20.29
H       4.75      18.56       4.95
H       4.75      11.52      13.60
H       4.75       7.55       3.18
H       4.83      -6.02      16.78
H       4.83       1.02       8.13
H       4.83       4.99      18.55
H       4.55      16.15       4.39
H       4.55      13.21      11.79
H       4.55       8.27       5.54
H       5.04      -3.61      17.34
H       5.04      -0.67       9.93
H       5.04       4.28      16.18
H       0.40      14.62       1.08
H       0.40      16.84      12.12
H       0.40       6.17       8.52
H       9.19      -2.07      20.64
H       9.19      -4.30       9.61
H       9.19       6.37      13.20
H       4.46      13.17       0.85
H       4.46      17.77      10.98
H       4.46       6.70       9.90
H       5.13      -0.62      20.88
H       5.13      -5.22      10.75
H       5.13       5.85      11.83
C       2.17       1.30      18.22
C       2.17      -3.89      13.74
C       2.17       2.59      11.49
C       7.42      11.25       3.50
C       7.42      16.43       7.99
C       7.42       9.95      10.23
C       3.38       1.63      18.86
C       3.38      -4.60      13.71
C       3.38       2.97      10.89
C       6.21      10.91       2.87
C       6.21      17.14       8.02
C       6.21       9.57      10.84
C       1.06       0.94      19.00
C       1.06      -4.38      13.04
C       1.06       3.44      11.41
C       8.53      11.60       2.73
C       8.53      16.92       8.69
C       8.53       9.10      10.31
C       1.81       3.15      16.05
C       1.81      -2.93      16.43
C       1.81      -0.22      10.97
C       7.77       9.39       5.67
C       7.77      15.48       5.30
C       7.77      12.76      10.76
C       1.06       3.98      16.90
C       1.06      -4.08      16.72
C       1.06       0.10       9.83
C       8.53       8.56       4.83
C       8.53      16.62       5.00
C       8.53      12.44      11.90
C       0.95       5.35      16.63
C       0.95      -4.53      18.04
C       0.95      -0.82       8.78
C       8.64       7.20       5.10
C       8.64      17.07       3.68
C       8.64      13.36      12.94
C       1.58       5.89      15.51
C       1.58      -3.83      19.08
C       1.58      -2.06       8.87
C       8.01       6.65       6.22
C       8.01      16.38       2.65
C       8.01      14.60      12.86
C       2.32       5.07      14.65
C       2.32      -2.68      18.79
C       2.32      -2.39      10.01
C       7.27       7.47       7.07
C       7.27      15.22       2.93
C       7.27      14.93      11.72
C       2.45       3.71      14.93
C       2.45      -2.24      17.47
C       2.45      -1.47      11.05
C       7.14       8.84       6.80
C       7.14      14.78       4.25
C       7.14      14.01      10.67
C       1.14       0.96      20.39
C       1.14      -5.59      12.37
C       1.14       4.63      10.70
C       8.45      11.58       1.34
C       8.45      18.14       9.36
C       8.45       7.91      11.03
C       3.46       1.64      20.24
C       3.46      -5.81      13.02
C       3.46       4.17      10.18
C       6.13      10.90       1.48
C       6.13      18.35       8.70
C       6.13       8.37      11.54
C       2.34       1.32      21.04
C       2.34      -6.33      12.35
C       2.34       5.01      10.06
C       7.25      11.22       0.69
C       7.25      18.88       9.37
C       7.25       7.53      11.66
C       2.62      13.98       3.59
C       2.62      14.99      10.32
C       2.62       8.66       7.82
C       6.97      -1.44      18.14
C       6.97      -2.44      11.41
C       6.97       3.88      13.91
C       3.71      13.56       2.82
C       3.71      15.87      10.33
C       3.71       8.21       8.58
C       5.88      -1.01      18.90
C       5.88      -3.32      11.40
C       5.88       4.34      13.15
C       1.42      14.36       2.95
C       1.42      15.35      10.96
C       1.42       7.92       7.82
C       8.16      -1.81      18.77
C       8.16      -2.81      10.77
C       8.16       4.62      13.91
C       2.98      15.78       5.83
C       2.98      12.15      10.75
C       2.98       9.70       5.14
C       6.61      -3.24      15.89
C       6.61       0.40      10.97
C       6.61       2.84      16.58
C       2.17      16.35       6.83
C       2.17      11.00      10.74
C       2.17      10.28       4.16
C       7.42      -3.80      14.90
C       7.42       1.54      10.98
C       7.42       2.26      17.57
C       2.29      17.70       7.15
C       2.29      10.05      11.75
C       2.29       9.88       2.82
C       7.30      -5.16      14.58
C       7.30       2.50       9.97
C       7.30       2.66      18.90
C       3.21      18.50       6.46
C       3.21      10.24      12.79
C       3.21       8.89       2.47
C       6.38      -5.96      15.26
C       6.38       2.30       8.94
C       6.38       3.65      19.25
C       4.02      17.94       5.47
C       4.02      11.38      12.80
C       4.02       8.31       3.45
C       5.57      -5.40      16.25
C       5.57       1.16       8.92
C       5.57       4.23      18.27
C       3.91      16.58       5.16
C       3.91      12.33      11.78
C       3.91       8.72       4.78
C       5.68      -4.04      16.57
C       5.68       0.22       9.94
C       5.68       3.83      16.94
C       1.33      14.31       1.57
C       1.33      16.57      11.61
C       1.33       6.75       8.55
C       8.26      -1.77      20.16
C       8.26      -4.03      10.12
C       8.26       5.80      13.18
C       3.61      13.52       1.43
C       3.61      17.08      10.99
C       3.61       7.02       9.30
C       5.98      -0.98      20.29
C       5.98      -4.54      10.73
C       5.98       5.52      12.43
C       2.42      13.90       0.78
C       2.42      17.46      11.65
C       2.42       6.27       9.30
C       7.16      -1.36      20.94
C       7.16      -4.92      10.08
C       7.16       6.27      12.43
O       0.82       0.56      16.05
O       0.82      -1.64      14.18
O       0.82       1.08      13.21
O       8.77      11.98       5.67
O       8.77      14.18       7.54
O       8.77      11.46       8.51
O       3.38       0.98      15.83
O       3.38      -1.66      14.66
O       3.38       0.68      12.96
O       6.21      11.56       5.89
O       6.21      14.20       7.07
O       6.21      11.86       8.76
O       3.98      13.20       5.72
O       3.98      13.53       8.57
O       3.98      10.90       7.44
O       5.61      -0.65      16.01
O       5.61      -0.99      13.16
O       5.61       1.65      14.29
O       1.41      13.61       5.97
O       1.41      13.12       8.80
O       1.41      10.90       6.96
O       8.18      -1.07      15.76
O       8.18      -0.57      12.92
O       8.18       1.64      14.77
