68

Zn       8.15       5.46       7.73
Zn       5.41       5.30       8.33
H       7.92       7.47      14.99
H       7.71       6.47       0.86
H       9.51       6.90      14.53
H       8.41       3.21      14.65
H       4.84       0.95       8.14
H       8.28       9.77       7.60
H       7.86       0.90       7.48
H       5.28       9.86       8.30
H       3.00       6.42       6.99
H      10.41       6.91       7.72
H       6.47       7.66       1.27
H       2.98       4.16       8.85
H       3.70       5.06       1.49
H       4.00       6.77       1.16
H       5.88       5.96      14.82
H       6.15       4.24      15.12
H       5.44       3.51       0.93
H       2.74       2.84       6.97
H       2.00       3.34       5.42
H      10.69       1.29       7.36
H       9.98       1.78       5.83
H       2.09       0.84       4.58
H       2.77      10.79       5.57
H       2.82       0.34       6.12
H       8.30       3.85       0.79
H       7.59       3.88       2.32
H      10.57       5.15      14.70
H      10.33       3.83      13.76
C       6.36       7.97       8.08
C       8.63       6.65      15.14
C       7.96       5.34      14.64
C       8.82       4.12      15.11
C       6.29       4.19       0.76
C       7.82       5.34      13.20
C       5.94       5.57       2.79
C       6.11       5.51       3.99
C       6.26       9.45       8.07
C       7.32      10.25       7.83
C       6.87       1.30       7.72
C       6.38       5.46       5.41
C       5.80       0.49       7.89
C       2.61       5.55       7.53
C      11.09       5.13       7.32
C       6.79       2.77       7.88
C       7.38       5.35      10.57
C       6.65       6.72       0.73
C       4.33       5.75       0.91
C       6.56       5.24      15.31
C       7.65       5.34      11.99
C       5.80       5.58       1.35
C       1.79       2.93       6.42
C      10.94       1.61       6.34
C       1.86       0.54       5.62
N       3.38       4.97       8.37
N      10.12       5.96       7.48
N       7.48       3.61       1.35
N      10.22       4.19      14.70
O       7.51       7.44       7.91
O       5.27       7.33       8.26
O       7.61       5.51       5.75
O       5.38       5.36       6.20
O       7.87       3.42       7.68
O       5.65       3.27       8.19
O       8.39       5.37       9.79
O       6.15       5.33      10.23
O      10.77       3.85       7.11
