49

Al       4.41      11.82       6.85
H       1.36      15.96       7.22
H       1.61      18.15       8.41
H       3.77      16.17      11.57
H       3.42       5.49       8.35
H       1.31       9.57      10.25
H       1.34       7.45      11.58
H       3.52      13.71       0.64
H       1.31      10.04       3.18
H       1.38       9.97       0.67
H       3.82      13.14       9.76
H       3.80       8.56       6.62
H       3.81      13.67       4.17
C       2.42      11.86       4.77
C       2.42      13.60       7.92
C       2.42      10.01       7.86
C       3.08      20.82      10.77
C       2.85      18.56      10.78
C       3.05      19.70      12.74
C       1.92      16.03       8.16
C       2.04      17.24       8.81
C       2.70      17.28      10.06
C       3.25      16.13      10.61
C       3.22      14.92       9.90
C       2.52      14.86       8.67
C       2.98       6.39       8.78
C       3.09       7.60       8.08
C       2.45       8.75       8.61
C       1.81       8.68       9.87
C       1.81       7.51      10.60
C       2.37       6.35      10.03
C       3.06      12.89       1.19
C       3.13      12.88       2.59
C       2.47      11.85       3.31
C       1.82      10.81       2.60
C       1.85      10.77       1.22
C       2.44      11.84       0.51
N       2.93      19.69      10.05
N       2.90      18.51      12.13
N       3.15      20.88      12.11
O       1.49      10.85       8.11
O       1.49      11.22       5.37
O       1.48      13.43       7.08
O       3.33      10.22       6.96
O       3.32      12.70       8.17
O       3.33      12.53       5.41
O       3.85      13.86      10.44
O       3.76       7.61       6.91
O       3.79      13.89       3.20
