62

Al       6.40       7.89       8.71
Al       9.75       7.89       8.71
H       4.71       6.60       9.92
H       8.08       9.19       7.49
H       6.94       7.70       4.84
H       7.16       7.57       2.36
H       2.65       7.52       4.50
H      10.14       8.27      12.91
H       5.86       8.09      12.57
H       5.64       8.21      15.05
H       9.30      11.93       8.74
H       9.26      14.38       8.64
H       3.50       3.86       8.67
H       3.54       1.41       8.77
H       5.93       3.81       8.35
H       5.94       1.35       8.45
H       6.87      11.98       9.06
H       6.85      14.44       8.96
H       2.91       7.34       0.93
H       9.89       8.45      16.48
C       8.04       5.48       8.56
C       8.10       8.02      11.12
C       4.75      10.31       8.85
C       4.70       7.77       6.29
C       4.79       7.64       4.81
C       6.06       7.64       4.20
C       6.18       7.57       2.83
C       5.03       7.51       2.02
C       3.75       7.47       2.64
C       3.63       7.54       4.02
C       5.07       7.48       0.61
C       7.73       8.31      16.80
C       7.77       8.28      15.39
C       9.05       8.32      14.77
C       9.16       8.25      13.39
C       8.01       8.15      12.60
C       6.74       8.15      13.21
C       6.62       8.22      14.58
C       4.73      11.79       8.88
C       8.06       3.99       8.53
C      10.23      12.49       8.78
C      10.22      13.88       8.72
C       2.57       3.30       8.63
C       2.58       1.91       8.69
C       6.87       3.26       8.45
C       6.89       1.88       8.51
C       5.92      12.52       8.96
C       5.91      13.91       8.90
C       4.70      14.63       8.76
C       8.09       1.16       8.65
O       6.91       6.05       8.46
O       9.25       8.09      10.57
O       3.63       9.72       8.69
O       5.80       7.96       6.90
O       5.89       9.74       8.95
O       3.55       7.70       6.84
O       9.16       6.07       8.72
O       7.00       7.83      10.51
O       4.72       7.31       9.27
O       8.08       8.48       8.14
O       2.62       7.39       1.87
O      10.18       8.41      15.54
