132

Zn      13.09       8.28       7.32
Zn      12.22       9.59      16.90
Zn       3.78       3.64      11.85
Zn       4.66       2.32       2.27
Zn       7.28       7.16       7.90
Zn       6.32      10.72      17.48
Zn       9.60       4.76      11.27
Zn      10.55       1.20       1.69
Zn       9.61      10.40       3.21
Zn       3.99       7.47      12.80
Zn       7.26       1.51      15.96
Zn      12.89       4.45       6.37
H      12.98       8.01      10.68
H      12.33       9.87       1.10
H       3.89       3.91       8.49
H       4.55       2.05      18.07
H      12.51       6.77       4.93
H      12.80      11.10      14.51
H       4.36       5.14      14.24
H       4.08       0.82       4.66
H      13.95       6.76       5.64
H      11.37      11.11      15.22
H       2.93       5.15      13.53
H       5.51       0.81       3.95
H       7.11       8.64       4.82
H       6.49       9.23      14.41
H       9.77       3.28      14.35
H      10.38       2.68       4.76
H       7.49       4.81       8.75
H       0.95       1.15      18.34
H       9.39       7.10      10.42
H      15.92      10.77       0.83
H       8.58       4.98       7.67
H      11.57       0.98      17.25
H       8.29       6.93      11.50
H       5.31      10.94       1.92
C      13.97       7.89      10.24
C      11.35       9.98       0.65
C       2.91       4.02       8.93
C       5.53       1.93      18.52
C      10.20       7.91       8.06
C      15.11       9.97      17.64
C       6.68       4.01      11.11
C       1.76       1.95       1.53
C       8.09       8.67       5.29
C       5.51       9.20      14.88
C       8.79       3.25      13.88
C      11.36       2.71       4.29
C      10.21       9.07       5.65
C      15.10       8.81      15.24
C       6.66       2.85      13.52
C       1.78       3.11       3.93
C      11.51       9.70       5.28
C      13.80       8.17      14.86
C       5.36       2.22      13.89
C       3.08       3.74       4.31
C       9.69       8.36       6.74
C      15.62       9.51      16.32
C       7.18       3.56      12.43
C       1.25       2.40       2.85
C       4.40       7.55      10.00
C       9.20      10.32       0.41
C      12.47       4.36       9.17
C       7.68       1.60      18.76
C       4.29       7.66       7.31
C       9.31      10.22      16.90
C      12.59       4.26      11.86
C       7.57       1.70       2.27
C       3.84       7.73       8.73
C       9.76      10.14      18.32
C      13.04       4.18      10.44
C       7.11       1.77       0.85
C       5.76       7.36      10.56
C       7.84      10.52       0.97
C      11.12       4.56       8.61
C       9.03       1.40      18.20
N      14.21       7.95       8.92
N      11.11       9.92      18.50
N       2.67       3.96      10.25
N       5.77       2.00       0.66
N       8.36       8.13       6.49
N       5.24       9.75      16.07
N       8.52       3.79      12.68
N      11.63       2.17       3.10
N       9.17       9.25       4.76
N       4.43       8.62      14.34
N       7.70       2.66      14.41
N      12.45       3.29       4.83
N       3.38       7.65      10.92
N      10.22      10.22       1.34
N      13.49       4.26       8.25
N       6.66       1.69      17.83
O      11.43       7.91       8.36
O      13.88       9.96      17.94
O       5.44       4.01      10.81
O       3.00       1.95       1.23
O       9.30       7.52       8.87
O      16.01      10.35      18.45
O       7.58       4.39      10.30
O       0.86       1.56       0.72
O      11.52      10.37       4.20
O      13.79       7.51      13.78
O       5.36       1.55      14.97
O       3.08       4.41       5.39
O       7.63       5.16       7.81
O       0.81       0.80      17.39
O       9.25       6.76      11.36
O      16.07      11.11       1.78
O      12.57       9.59       6.00
O      12.75       8.28      15.59
O       4.31       2.33      13.17
O       4.13       3.63       3.58
O      12.98       6.53       5.75
O      12.34      11.34      15.33
O       3.90       5.38      13.42
O       4.54       0.57       3.84
O      15.07       7.82       6.44
O      10.24      10.05      16.02
O       1.80       4.09      12.73
O       6.64       1.87       3.15
O       5.49       7.44       6.99
O       8.11      10.43      16.58
O      11.38       4.48      12.18
O       8.77       1.48       2.59
O       6.79       7.38       9.82
O       6.81      10.50       0.24
O      10.08       4.54       9.35
O      10.07       1.42      18.93
O       5.85       7.21      11.83
O       7.75      10.66       2.24
O      11.03       4.70       7.34
O       9.12       1.25      16.93
