72

Zn      12.67       6.76       5.97
Zn      10.20       6.59       7.37
H      15.33       6.21       6.76
H       5.89       4.37       8.66
H      11.80       3.42       3.90
H      12.50      13.04       4.12
H      10.68       2.90       8.56
H       9.24       9.61       8.33
H       8.94      10.89       9.53
H      15.19       9.17       1.92
H       3.67       9.32       2.04
H      13.69      11.68       5.13
H      12.98      10.12       5.38
H      10.81       2.34       1.96
H       9.96       0.88       2.05
C      11.60       4.17       6.37
C       9.24       6.20       3.31
C      10.77      12.51       8.72
C      11.25      10.72       7.12
C      11.28       2.66       4.49
C      10.65       1.57       3.85
C      10.02       0.60       4.63
C       9.95       0.70       6.03
C      10.45       1.89       6.66
C      12.27      12.97       6.85
C      11.76      13.33       8.14
C      12.58       6.71       9.01
C       9.38       1.24       8.74
C      10.22       2.07       8.05
C      12.13      11.60       6.44
C      10.43      11.26       8.18
C      11.15       2.84       5.85
C      16.00       8.25       3.55
C       6.90       6.18       7.97
C       5.85       5.26       8.03
C       4.75       5.50       7.21
C       4.73       6.64       6.35
C      11.21       9.28       6.82
C       5.95       7.38       6.30
C      16.89       7.07       5.51
C       3.86       7.94       4.39
C       5.18       8.51       4.25
C       6.14       8.33       5.23
C      15.57       6.74       5.84
C      14.73       7.82       3.99
C       9.88       6.36       4.60
C      13.24       6.62      10.30
C      13.69       6.56      11.44
C      14.14       6.52      12.70
C       8.36       6.07       0.90
C       8.81       6.12       2.17
N      14.52       7.13       5.12
N       6.97       7.19       7.15
N       9.38      10.56       8.68
N      16.06       8.95       2.39
N      12.88      11.13       5.39
N      10.68       1.46       2.46
Cl       5.65       9.48       2.90
Cl       8.28       5.94       9.03
Cl      16.78       4.31       7.24
Cl       7.63       9.16       5.18
Cl       9.25       1.58      10.45
Cl       9.77      13.05      10.04
Cl      13.35       8.23       3.05
O      12.59       4.74       5.79
O      10.92       4.70       7.31
O      13.31       6.64       7.97
O      11.32       6.85       9.08
O      12.24       8.74       6.25
O      10.18       8.59       7.15
O      11.10       6.72       4.54
O       9.19       6.15       5.64
