70

Zn       8.77       3.22       2.28
Zn       7.17       4.14       4.88
Zn       5.57       3.22       2.28
Zn       7.17       5.98       2.28
Zn      21.51      12.42       6.82
Zn      19.91      13.35       9.44
Zn      21.51      10.57       9.44
Zn      23.11      13.35       9.44
H      11.41       1.71       3.73
H       9.23       2.93       7.26
H       2.93       4.09       0.37
H       5.11       7.82       0.34
H      11.39       4.08       0.34
H       9.24       7.83       0.37
H       5.10       2.96       7.26
H       2.95       1.68       3.73
H       9.33       0.50       0.37
H       5.01       0.52       0.34
H       7.15       9.02       3.73
H       7.19       6.52       7.26
C      10.75       2.08       5.85
C       3.60       6.20       0.01
C      10.75       6.20       0.01
C       3.60       2.08       5.85
C       7.17       0.01       0.01
C       7.17       8.27       5.85
C      10.69       2.12       4.44
C       9.58       2.74       6.25
C       3.65       4.90       0.51
C       4.76       6.81       0.50
C      10.69       4.89       0.50
C       9.59       6.81       0.51
C       4.75       2.75       6.25
C       3.65       2.10       4.44
C       8.28       0.71       0.51
C       6.06       0.72       0.50
C       7.16       8.20       4.44
C       7.18       6.93       6.25
C      18.95      13.90       6.69
C      24.07      10.94      10.87
C      18.95      10.94      10.87
C      24.07      13.90       6.69
C      21.51      15.38      10.87
C      21.51       9.46       6.69
N       9.58       2.75       4.05
N       8.89       3.14       5.18
N       4.76       4.74       1.25
N       5.45       5.93       1.24
N       9.58       4.73       1.24
N       8.89       5.93       1.25
N       5.45       3.15       5.18
N       4.76       2.74       4.05
N       7.86       1.75       1.25
N       6.48       1.76       1.24
N       7.17       6.92       4.05
N       7.18       6.13       5.18
O       7.17       4.14       2.93
O      21.51      12.42       8.78
O      19.93      13.33       6.09
O      18.79      13.99       7.96
O      23.09      10.19      10.54
O      24.24      12.17      10.54
O      19.93      10.19      10.54
O      18.79      12.17      10.54
O      24.24      13.99       7.96
O      23.09      13.33       6.09
O      22.66      14.90      10.54
O      20.37      14.91      10.54
O      21.51      10.59       6.09
O      21.51       9.27       7.96
