77

Zn       8.22       8.54       7.02
Zn      10.67       8.74       9.08
Zn       8.58      11.01       9.16
Zn      10.24      10.82       6.49
H      14.58      15.26      13.98
H      10.21       8.49      13.32
H       5.48       3.79       1.69
H      15.85      16.31      15.78
H       7.63       7.40       3.19
H      12.89      13.66      13.22
H       6.66       5.76       2.56
H      10.35      12.73      11.70
H      10.55      15.05      12.40
H      10.75      14.50      14.08
H       9.20      14.24      13.24
H      10.47       8.78      15.79
H      11.29      10.91       1.38
H      12.84       9.51       2.58
H      11.71       9.51       3.95
H      12.51      11.01       3.51
H      14.88       9.52       9.12
H       4.06       9.37       6.89
H       4.30       9.91       9.92
H       8.29       4.25       6.99
H       9.07      15.33       9.20
H       9.63       4.44       9.77
H       8.80      15.10       6.13
C      12.89       9.79       7.41
C       6.46       5.68       1.49
C       5.79       4.59       1.01
C       6.04       9.73       8.61
C      11.16      10.83      15.61
C      11.45      11.92      14.73
C      10.66       9.61      15.11
C      10.48       9.46      13.75
C      10.91      11.85      13.39
C       4.59       9.69       8.90
C       3.69       9.52       7.90
C       9.93       9.56       1.90
C      14.36       9.69       7.11
C      15.27       9.56       8.10
C       8.86      14.79       7.17
C       9.30       6.20       8.51
C       8.93      15.69       8.17
C       9.18       4.76       8.83
C       8.67       3.88       7.95
C       9.02      13.34       7.42
C      10.21      10.33      11.47
C       9.12       9.16       4.32
C       8.20       7.91       2.42
C       9.13       8.85       2.86
C      10.56      10.57      12.88
C       9.61       9.37       0.55
C      10.29      14.25      13.11
C      12.06      10.10       3.10
C       7.93       7.66       1.06
C       8.63       8.47       0.11
C       7.00       6.65       0.60
C      12.34      12.96      15.20
C      13.07      13.79      14.28
C      14.01      14.69      14.71
N      10.78      12.97      12.60
N      10.95      10.44       2.21
Cl      14.80       9.83       5.45
O       9.46       9.76       7.93
O      10.44       9.16      10.99
O       9.68      10.23       4.71
O       9.70      11.29      10.77
O       8.50       8.34       5.09
O       8.45       6.70       7.69
O       9.68      12.70       6.53
O      12.50       9.20       8.47
O       6.78      10.30       9.49
O      12.19      10.45       6.58
O       6.44       9.21       7.51
O      10.26       6.82       9.09
O       8.53      12.86       8.49
