104

Zn       6.69       7.71       8.63
Zn       9.45       7.70       8.52
H       4.60       6.12       9.93
H      11.54       9.27       7.28
H       4.59       9.24       7.21
H      11.54       6.14       9.98
H       2.39      10.26       6.37
H      13.75       5.15      10.87
H      13.73      10.28       6.40
H       2.41       5.13      10.84
H       9.46       9.43       4.46
H       6.41       7.16      13.03
H      10.37       9.63      17.04
H       5.45       8.00       0.19
H       6.59       7.42      15.51
H       9.11      10.03       2.07
H       6.19       6.88       1.77
H       9.78      10.25      14.93
H       5.96       3.45       9.07
H      10.22      11.96       8.03
H      10.16       3.43       8.22
H       6.02      11.98       8.89
H      11.37       1.27       7.88
H       4.81      14.14       9.22
H      11.47      14.11       7.80
H       4.70       1.30       9.28
H      12.00      11.76      11.32
H      10.51      12.64      10.95
H      11.61      13.25      12.20
H       9.63      12.12      13.26
H      11.13      11.27      13.64
H      10.67       9.61      11.81
H       9.27      10.51      11.32
H       5.86       3.90       6.12
H       5.69       3.22       4.48
H       7.08       2.78       5.50
H       7.77       4.48       3.77
H       7.94       5.13       5.40
H       5.71       6.27       5.16
H       5.55       5.62       3.52
C       8.10      10.34       8.43
C       8.06       5.08       8.69
C       6.87       2.88       8.88
C       9.31      12.53       8.22
C       8.06       3.57       8.66
C       8.11      11.84       8.45
C       9.24       2.87       8.40
C       6.94      12.54       8.71
C       9.25       1.47       8.34
C       6.93      13.94       8.76
C       8.03       0.76       8.57
C       8.15      14.65       8.53
C       6.82       1.48       8.85
C       9.35      13.93       8.25
C      10.44       0.72       8.06
C       5.74      14.69       9.04
C      10.56      14.67       8.02
C       5.61       0.74       9.08
C       3.98       6.80       9.35
C      12.16       8.59       7.87
C       3.97       8.56       7.81
C      12.16       6.83       9.40
C       8.00       8.09      11.16
C       8.10       7.70       5.96
C       2.57       8.62       7.79
C      13.56       6.78       9.44
C       1.87       7.70       8.61
C      14.27       7.71       8.63
C       2.58       6.77       9.41
C      13.56       8.64       7.82
C       1.84       9.56       6.99
C      14.30       5.85      10.25
C      14.29       9.57       7.01
C       1.85       5.84      10.23
C       8.05       8.46      12.61
C       7.96       7.89       4.48
C       8.99       9.40      13.13
C       7.03       7.15       3.71
C       9.06       9.54      14.51
C       6.87       7.48       2.37
C       8.26       8.79      15.40
C       7.57       8.54       1.75
C       7.26       7.97      14.84
C       8.53       9.23       2.52
C       7.16       7.82      13.47
C       8.72       8.90       3.86
C       8.47       8.72      16.83
C       7.34       8.88       0.35
C       9.85      10.24      12.21
C      10.44      11.51      12.81
C      11.18      12.34      11.76
C       6.28       5.96       4.27
C       7.20       4.79       4.66
C       6.41       3.60       5.22
N       4.64       7.68       8.57
N      11.50       7.71       8.63
O       6.97       9.77       8.55
O       9.20       5.66       8.67
O       9.23       9.76       8.30
O       6.93       5.65       8.72
O       6.85       7.84      10.66
O       9.26       7.64       6.46
O       9.11       8.01      10.53
O       7.00       7.66       6.61
