42

Zn       6.14       6.76       5.22
Zn       6.06       4.02       5.55
H       6.24       3.03       1.29
H       5.97       7.75       9.48
H       5.30       8.97       6.99
H       6.90       1.81       3.78
H       9.93       3.51       3.46
H       2.28       7.27       7.31
C       5.68       5.15       2.84
C       6.53       5.63       7.93
C       8.69       5.15       5.11
C       3.51       5.63       5.66
C      10.19       5.09       4.96
C       2.02       5.69       5.82
C       5.74       3.81       0.73
C       6.47       6.96      10.04
C       7.49       4.80      10.15
C       4.72       5.98       0.62
C       6.84       5.78       9.39
C       5.37       4.99       1.38
C       5.03       1.27       6.41
C       7.17       9.51       4.36
C       5.91       9.52       6.28
C       6.30       1.26       4.50
C       1.61       4.30       3.78
C      10.60       6.48       7.00
N       6.42       8.85       5.23
N       5.79       1.93       5.54
O       5.76       6.33       3.30
O       6.44       4.45       7.47
O       5.86       4.07       3.50
O       6.35       6.71       7.27
O       8.14       6.29       5.02
O       4.07       4.49       5.76
O       8.13       4.02       5.23
O       4.08       6.76       5.54
O       2.65       4.50       3.17
O       9.56       6.28       7.60
F       7.91       3.64       9.59
F       4.30       7.14       1.19
F       4.54       1.95       7.44
F       7.67       8.82       3.33
