106

Zr       1.76      16.04       1.74
Zr      14.68      16.15       1.61
Zr       1.89       6.47      15.14
Zr      14.82       6.55      14.99
Zr       0.08      20.62      15.07
Zr      16.49       1.98       1.68
H      16.53      17.06       3.66
H      13.73      21.14      15.31
H       0.07       8.71      15.32
H       2.93      21.03      15.46
H      11.98      15.76       1.22
H      12.46       0.16       0.01
H      14.90       7.58      12.53
H       0.32       7.79      13.22
H       4.49       6.91      15.54
H       4.09      16.97       0.49
H       1.63      14.03       3.48
H      16.25      14.76       3.49
H       1.70       7.24      12.52
H       4.37      16.84       2.10
H      14.81      15.08       4.23
H      12.21       7.17      15.63
C       2.16      13.13       0.31
C      14.25      18.47       3.87
C      14.31      13.22       0.16
C       2.28       1.32       3.88
C       2.36       3.78       0.38
C      14.47      21.41      12.72
C      14.23       3.85       0.35
C       2.26      21.32      12.80
C       4.35      19.60       7.26
C       6.29      19.89       8.39
C       4.31      20.20       9.44
C      12.29      19.59       7.27
C      12.34      20.26       9.43
C      10.36      19.91       8.41
C       4.32       7.37       0.40
C       4.25       9.63       0.34
C       6.24       8.56       0.38
C      12.24       7.41       0.41
C      12.28       9.67       0.28
C      10.30       8.58       0.37
C       7.66       8.59       0.38
C       8.88       8.60       0.38
C       8.93      19.91       8.43
C       7.72      19.90       8.42
C      13.74      20.99      11.55
C      13.09      20.64      10.58
C      12.97      19.22       6.08
C      13.55      18.89       5.06
C       2.95      20.90      11.60
C       3.57      20.56      10.61
C       3.61       2.07       6.06
C       3.01       1.75       5.05
C      13.51       5.10       0.41
C      12.93       6.16       0.43
C      13.62      11.95       0.18
C      13.01      10.90       0.22
C       3.64       6.11       0.41
C       3.07       5.04       0.41
C       2.86      11.87       0.31
C       3.50      10.84       0.32
N       5.70      19.58       7.22
N       5.65      20.21       9.54
N       3.60      19.90       8.33
N      13.05      19.92       8.33
N      11.00      20.27       9.54
N      10.94      19.56       7.24
N       3.55       8.47       0.37
N       5.59       9.74       0.34
N       5.66       7.34       0.41
N      13.00       8.53       0.34
N      10.94       9.77       0.29
N      10.89       7.37       0.44
O       2.42      13.92       1.27
O       1.38      18.87      15.62
O      13.97      17.30       3.44
O      15.02       2.11       3.38
O      13.98      14.04       1.08
O      15.17      18.93      15.52
O       2.68      17.37       3.39
O       1.36       2.10       3.46
O       1.22      14.91       3.45
O       3.98      16.36       1.34
O      15.19      14.80       3.38
O      12.63      16.48       1.19
O      16.48      15.40       0.81
O      16.52      17.10       2.69
O       2.71       8.49      15.75
O       1.46       3.62       1.27
O      14.17       5.41      13.14
O      15.28      20.56      13.23
O      13.91       8.56      15.72
O      15.15       3.69       1.22
O       2.46       5.32      13.21
O       1.48      20.47      13.33
O       1.38       7.72      13.31
O       3.93       6.11      15.52
O      15.33       7.80      13.37
O      12.60       6.29      15.43
O       0.08       7.80      15.67
O       0.08       5.46      14.72
O       1.46       0.78       0.87
O      14.54      21.57      15.61
O       2.12      21.47      15.77
O      15.01       0.83       0.81
