94

Zn       6.39       5.71      14.08
Zn       3.62       5.74      14.05
H       2.82       5.56      20.84
H       8.64       7.44      13.03
H       8.97       4.94      14.50
H       4.48       2.52      24.69
H       2.81       5.82       9.72
H       2.87       5.85       7.22
H       5.72       2.39       3.46
H       5.47       2.27       1.01
H       7.08       6.09      18.34
H       5.17       9.18      24.65
H       3.04       1.37      13.65
H       4.20       8.93       0.91
H       5.95       1.24      14.65
H       0.69       7.72      11.76
H       2.29       7.13      12.13
H       1.79       4.64      15.73
H       0.57       5.72      15.93
H       3.82       1.87       0.10
H       3.95       1.48      26.64
H       2.83       5.57      18.34
H       7.09       5.53       9.82
H       4.22       8.94       3.39
H       7.16       5.56       7.31
H       5.06       9.23      27.13
H       3.09      10.01      14.14
H       6.10      10.25      13.51
H       7.09       6.06      20.85
C       4.99       3.14      14.20
C       4.89       4.34       0.74
C       4.61       6.82       0.72
C       4.95       5.82      16.69
C       4.78       5.59       1.43
C       5.25       3.21       1.50
C       5.42       3.27       2.89
C       5.19       4.46       3.58
C       4.87       5.63       2.86
C       4.67       6.85       3.55
C       4.72       6.91       5.03
C       6.16       5.95      20.29
C       5.30       4.47       5.05
C       3.79       5.79       7.80
C       3.76       5.78       9.19
C       5.13       8.32      13.88
C       6.17       5.61       9.24
C       6.21       5.63       7.85
C       5.01       5.71       7.13
C       4.87       4.59      27.41
C       4.90       5.83      26.69
C       4.91       7.09      27.37
C       4.95       5.80      20.98
C       4.62       3.40      26.67
C       5.07       8.26      25.23
C       4.39       8.00       1.44
C       4.40       8.02       2.83
C       4.92       5.68      11.42
C       5.01       8.27      26.62
C       4.03      10.54      13.96
C       5.14       9.79      13.77
C       3.98       0.88      13.94
C       5.02       1.67      14.29
C       4.90       5.84      25.26
C       9.15       6.60      13.52
C       0.80       6.55      13.43
C       4.80       4.57      23.07
C       5.05       7.06      23.06
C       3.75       5.67      20.29
C       3.75       5.68      18.90
C       6.16       5.97      18.90
C       4.79       4.61      24.56
C       4.61       3.44      25.25
C       5.00       7.05      24.54
C       4.95       5.83      18.19
C       4.95       5.69       9.92
N       4.95       5.81      22.42
N       5.02       5.70       5.69
N       8.42       5.70      14.07
N       1.58       5.83      14.19
N       1.32       7.32      12.44
N       1.00       5.08      15.25
N       4.38       2.17      27.25
O       6.10       3.73      14.42
O       6.00       5.40      12.03
O       3.80       5.95      11.98
O       4.70       3.52      22.44
O       5.60       3.47       5.71
O       5.16       8.09      22.41
O       4.51       7.94       5.66
O       3.88       3.72      13.91
O       6.05       6.08      16.10
O       3.84       5.56      16.12
O       6.25       7.73      13.68
O       4.03       7.74      14.16
