198

Cu       7.37       7.40       5.43
Cu       7.37       5.14       7.66
Cu       5.10       7.39       7.65
Cu      26.54       7.40      29.52
Cu      26.53       5.14      27.28
Cu      28.79       7.39      27.28
Cu       7.43      26.58      29.51
Cu       7.44      28.83      27.27
Cu       5.18      26.59      27.29
Cu      26.51      26.58       5.42
Cu      26.52      28.84       7.65
Cu      28.77      26.57       7.64
H       9.72       6.37       3.56
H       9.72       3.28       6.59
H       3.23       9.74       6.58
H       6.36       9.77       3.57
H       6.37       3.33      10.06
H       3.27       6.37      10.03
H      24.21       6.36      31.40
H      24.19       3.27      28.36
H      30.65       9.75      28.33
H      27.54       9.79      31.35
H      27.53       3.33      24.87
H      30.62       6.37      24.91
H       9.74      27.64      31.41
H       9.78      30.71      28.35
H       3.32      24.22      28.34
H       6.45      24.17      31.34
H       6.46      30.62      24.84
H       3.33      27.62      24.93
H      24.18      27.62       3.54
H      24.18      30.71       6.58
H      30.62      24.20       6.60
H      27.51      24.19       3.57
H      27.54      30.65      10.04
H      30.62      27.59      10.01
H      32.39      32.40      16.55
H       1.53       1.54      16.56
H       1.58      32.40      18.36
H      32.35       1.54      18.36
H       0.09      33.95      12.82
H       0.05       0.01      22.10
H      16.11      32.49      33.34
H      16.01       1.46       1.57
H      17.88       1.46      33.34
H      17.85      32.49       1.57
H      12.26       0.01       0.01
H      21.54       0.02       0.02
H      32.46      16.08      33.31
H       1.47      16.07       1.59
H      32.40      17.88       1.60
H       1.54      17.88      33.31
H      33.89      12.33      34.91
H       0.11      21.62      34.92
C       9.55       5.74       4.42
C      10.16       4.52       4.76
C       9.55       4.15       5.98
C       4.12       9.57       5.97
C       4.49      10.20       4.76
C       5.72       9.59       4.43
C       5.74       4.19       9.88
C       4.52       4.54      10.50
C       4.15       5.75       9.86
C      24.37       5.73      30.53
C      23.76       4.51      30.20
C      24.36       4.15      28.98
C      29.77       9.59      28.95
C      29.41      10.21      30.16
C      28.18       9.61      30.49
C      28.16       4.19      25.05
C      29.38       4.55      24.43
C      29.75       5.75      25.07
C       9.58      28.27      30.54
C      10.20      29.49      30.20
C       9.60      29.84      28.97
C       4.20      24.38      28.95
C       4.58      23.75      30.15
C       5.81      24.36      30.48
C       5.81      29.77      25.03
C       4.59      29.43      24.43
C       4.21      28.23      25.08
C      24.35      28.25       4.41
C      23.74      29.48       4.74
C      24.35      29.84       5.97
C      29.74      24.37       5.98
C      29.37      23.75       4.77
C      28.14      24.36       4.43
C      28.17      29.79       9.86
C      29.39      29.43      10.48
C      29.75      28.22       9.85
C      33.05      33.08      16.01
C       0.08      33.95      16.71
C       0.88       0.86      16.01
C       0.89       0.86      14.60
C       0.09      33.95      13.91
C      33.04      33.07      14.60
C      33.89      33.95      18.20
C       0.93      33.08      18.90
C       0.94      33.08      20.32
C       0.10      33.96      21.01
C      33.00       0.88      20.31
C      33.01       0.86      18.90
C      15.57      33.14      34.03
C      16.27      33.96      34.92
C      15.46       0.82       0.88
C      14.05       0.83       0.90
C      13.35       0.00       0.00
C      14.16      33.13      34.03
C      17.77      33.96      34.92
C      18.42       0.82      34.04
C      19.83       0.84      34.04
C      20.45       0.01       0.02
C      19.80      33.13       0.90
C      18.39      33.13       0.89
C      33.09      15.53      34.01
C       0.10      16.23      34.91
C       0.83      15.53       0.89
C       0.84      14.12       0.90
C      33.90      13.42      34.91
C      33.08      14.12      34.01
C       0.10      17.72      34.92
C      33.03      18.42       0.90
C      33.02      19.83       0.90
C       0.11      20.53      34.92
C       0.92      19.83      34.01
C       0.91      18.42      34.01
C      11.09       3.79       4.01
C      11.85       3.12       3.31
C      12.64       2.37       2.52
C      13.33       1.67       1.78
C      22.83       3.78      30.95
C      22.05       3.12      31.64
C      21.26       2.37      32.43
C      20.56       1.67      33.16
C      11.13      30.21      30.95
C      11.91      30.87      31.63
C      12.72      31.61      32.42
C      13.42      32.30      33.15
C      22.80      30.20       4.00
C      22.03      30.86       3.31
C      21.23      31.61       2.52
C      20.53      32.30       1.79
C       3.77      11.14       4.02
C       3.11      11.91       3.32
C       2.36      12.70       2.53
C       1.66      13.39       1.79
C      30.09      22.81       4.03
C      30.75      22.04       3.34
C      31.50      21.25       2.54
C      32.20      20.56       1.80
C      30.13      11.15      30.90
C      30.80      11.92      31.59
C      31.55      12.71      32.38
C      32.25      13.40      33.12
C       3.86      22.80      30.89
C       3.20      22.03      31.58
C       2.44      21.24      32.37
C       1.75      20.56      33.12
C       3.81       3.83      11.48
C       3.17       3.18      12.29
C       2.42       2.43      13.13
C       1.73       1.73      13.87
C       3.88      30.13      23.45
C       3.23      30.78      22.63
C       2.48      31.52      21.79
C       1.79      32.22      21.05
C      30.10      30.13      11.46
C      30.75      30.78      12.28
C      31.50      31.52      13.12
C      32.19      32.21      13.86
C      30.09       3.84      23.45
C      30.73       3.19      22.63
C      31.48       2.45      21.79
C      32.16       1.75      21.05
N       8.65       5.09       6.33
N       8.65       6.07       5.36
N       6.04       8.68       5.37
N       5.05       8.67       6.32
N       5.07       6.07       8.94
N       6.05       5.10       8.95
N      25.26       5.08      28.62
N      25.27       6.06      29.59
N      27.85       8.69      29.56
N      28.84       8.68      28.60
N      28.83       6.07      26.00
N      27.85       5.10      25.99
N       8.70      28.90      28.62
N       8.69      27.93      29.59
N       6.12      25.28      29.56
N       5.13      25.29      28.60
N       5.13      27.91      26.00
N       6.13      28.86      25.98
N      25.25      28.90       6.31
N      25.25      27.92       5.35
N      27.82      25.28       5.37
N      28.81      25.28       6.33
N      28.82      27.90       8.92
N      27.85      28.87       8.93
