190

Hf      15.21       3.06      17.65
Hf      15.15      17.69       2.52
Hf      15.17       0.56      15.15
Hf      15.20      15.78      17.67
Hf       2.39      18.25      17.67
Hf      12.71       0.58      17.66
H      13.29       2.10       1.92
H       1.69      15.69       2.14
H      13.30      16.15      15.71
H       1.80       2.52      15.59
H      14.64      15.77       4.34
H      14.32      13.39       1.94
H       0.46      13.86      15.87
H      15.15      15.51      14.77
H      14.60       2.48      13.31
H      15.15       3.47      14.94
H       0.54       4.37       1.79
H      15.15       2.74       2.89
H       0.59      16.07      13.43
H       0.55       4.85      15.46
H       0.53       2.17       4.25
H       0.64      13.29       2.16
H      10.04       9.42      17.56
H       5.13       9.40      17.61
H      10.00      17.94       8.81
H       5.09      17.93       8.82
C       3.14       3.12       0.03
C      11.92      17.70       3.06
C       3.15       0.14       3.05
C      11.98       3.66      17.48
C      11.97       0.55      14.53
C       3.15      15.14      17.57
C      11.92      14.62       0.17
C       3.13      18.13      14.55
C       8.30       8.18      17.57
C       6.89       8.18      17.59
C       6.22       9.41      17.60
C       6.88      10.64      17.61
C       8.29      10.64      17.60
C       8.96       9.42      17.57
C       8.25      17.87       7.58
C       6.83      17.89       7.59
C       6.18      17.94       8.82
C       6.84      17.99      10.05
C       8.25       0.33      10.04
C       8.91      17.94       8.81
C      10.93       0.53      13.44
C       9.89      17.28      13.44
C       9.02      17.18      12.31
C       9.11       0.42      11.25
C      10.13       1.40      11.30
C      11.05       1.43      12.36
C       9.68      16.38      14.52
C      10.25       2.37      10.26
C      12.09       2.40      12.35
C       8.10      16.09      12.25
C       5.98      18.03      11.25
C       4.99      17.03      11.41
C       4.07      17.08      12.48
C       4.16      18.09      13.45
C       5.14       1.39      13.32
C       6.03       1.38      12.21
C       4.87      15.96      10.46
C       5.23       2.46      14.26
C       6.94       2.46      12.04
C       3.07      16.08      12.58
C      10.88      17.71       4.15
C       9.85       0.99       4.20
C       8.99       1.06       5.33
C       9.09      17.80       6.37
C      10.10      16.81       6.29
C      10.99      16.78       5.20
C       9.67       1.93       3.14
C      10.24      15.83       7.32
C      11.99      15.76       5.14
C       8.08       2.15       5.43
C       4.18       0.16       4.16
C       4.08       1.15       5.15
C       4.97       1.18       6.24
C       5.97      17.87       6.38
C       6.04      16.85       5.41
C       5.17      16.86       4.28
C       3.06       2.15       5.07
C       6.94      15.76       5.57
C       5.27      15.80       3.33
C       4.84       2.23       7.20
C       9.13      11.86      17.64
C      10.11      12.07      16.64
C      10.96      13.19      16.69
C      10.88      13.52       0.09
C       9.89      13.36       1.06
C       9.02      12.23       1.01
C      10.26      11.13      15.58
C       9.75      14.30       2.11
C       8.09      12.05       2.06
C      11.83      13.48      15.60
C       6.02      11.85      17.63
C       6.12      12.87      16.66
C       5.24      13.99      16.68
C       4.20      14.06      17.61
C       4.08      12.46       0.90
C       4.99      11.38       0.92
C       7.05      12.75      15.59
C       3.05      12.54       1.88
C       4.82      10.38       1.93
C       5.43      15.01      15.71
C      10.94       4.75      17.52
C       9.94       4.87      16.55
C       9.06       5.99      16.56
C       9.15       6.97      17.56
C      10.13       6.25       0.88
C      11.00       5.14       0.87
C       9.80       3.89      15.52
C      10.28       7.22       1.91
C      11.89       4.93       1.97
C       8.11       6.13      15.50
C       4.19       4.78      17.66
C       5.24       4.28       0.90
C       6.12       5.39       0.90
C       6.03       6.97      17.59
C       5.00       6.86      16.63
C       4.07       5.79      16.69
C       5.42       3.27       1.89
C       4.83       7.84      15.61
C       3.02       5.75      15.73
C       7.06       5.52       1.96
N      12.95       3.19      12.32
N       7.36      15.19      12.18
N      10.40       3.14       9.39
N       9.43      15.62      15.38
N       7.69       3.35      11.90
N       2.23      15.27      12.67
N       5.29       3.36      15.01
N       4.72      15.11       9.68
N      12.80      14.93       5.08
N       7.35       3.06       5.51
N      10.39      15.06       8.18
N       9.48       2.71       2.30
N       5.35      14.90       2.58
N       4.68       3.06       8.01
N       7.67      14.86       5.71
N       2.22       2.96       5.03
N       7.32      11.91       2.93
N      12.48      13.81      14.69
N       9.62      15.09       2.97
N      10.45      10.34      14.74
N       4.61       9.55       2.71
N       5.62      15.84      14.90
N       2.20      12.62       2.66
N       7.79      12.67      14.69
N      12.54       4.70       2.91
N       7.33       6.23      14.64
N      10.45       8.06       2.71
N       9.66       3.10      14.68
N       2.15       5.72      14.96
N       7.81       5.63       2.85
N       4.65       8.67      14.81
N       5.60       2.47       2.72
O       1.95       4.12      17.68
O       3.54       1.92       0.07
O      13.11      17.67       3.49
O      11.51       0.07       1.86
O       1.97       0.30       3.44
O       3.57      17.62       1.86
O      13.16       4.08      17.46
O      11.56       2.46      17.50
O      15.17       3.65       1.67
O      15.17       4.17      15.72
O      15.13       1.96       3.58
O       0.06      16.23       3.84
O       0.97       1.03       0.99
O      13.78       1.46       1.37
O      13.17       0.59      14.12
O      11.56       0.51      15.73
O       1.96      14.71      17.59
O       3.55      16.34      17.55
O      13.11      14.19       0.30
O      11.52      15.81       0.08
O       1.93      18.03      14.15
O       3.55       0.59      15.74
O      15.16      16.30      14.08
O      15.25       2.29      14.02
O      15.12      14.60      15.97
O      15.19      13.67       1.60
O      13.79      16.78      16.27
O       0.97      17.21      16.64
O      14.13       1.58      16.60
O       1.28      16.23       1.44
O       1.32       1.96      16.22
O      14.10      16.65       1.05
