88

Zn       8.13       4.15      12.10
Zn       8.11      12.49       0.24
Zn      23.37       5.13      14.60
Zn       1.45       0.41       0.16
Zn      16.67       9.14       8.71
Zn      16.57      11.16       6.50
Zn      14.82       8.44       6.22
Zn      18.15       8.34       5.98
H      16.19      13.71      13.33
H      20.53       7.10      12.67
H      12.74       7.10      13.08
H      20.44      14.38       2.51
H      12.41      14.55       2.98
H      14.30       3.41       2.10
C      16.27      16.16      12.23
C      16.28      14.86      11.55
C      16.32      12.98      10.33
C      16.37      11.94       9.28
C      16.34      14.40      10.23
C      22.53       5.59      11.79
C      21.54       6.31      10.99
C      20.14       7.40       9.62
C      19.33       8.01       8.54
C      21.25       6.51       9.63
C      10.61       5.76      12.11
C      11.73       6.36      11.37
C      13.36       7.14      10.05
C      14.28       7.57       8.96
C      12.11       6.46      10.03
C      22.48      12.92       1.58
C      21.42      12.50       2.50
C      19.89      11.67       3.92
C      19.01      10.89       4.83
C      21.06      11.33       3.18
C      10.53      13.04       1.78
C      11.57      12.62       2.74
C      13.07      11.77       4.17
C      13.97      10.96       5.04
C      11.96      11.42       3.35
C      16.66       2.38       1.42
C      16.40       3.53       2.30
C      16.19       5.29       3.68
C      16.35       6.45       4.60
C      17.15       4.44       3.05
Br      16.41      15.46       8.70
Br      22.17       5.78       8.18
Br      11.19       5.79       8.55
Br      21.95       9.69       3.12
Br      11.19       9.74       3.10
Br      19.01       4.50       3.18
N      16.23      13.72      12.31
N      16.25      12.60      11.62
N      20.60       7.04      11.66
N      19.77       7.71      10.89
N      12.73       6.98      12.07
N      13.71       7.44      11.32
N      20.47      13.42       2.85
N      19.56      12.97       3.69
N      12.43      13.56       3.22
N      13.33      13.09       4.06
N      15.10       3.88       2.52
N      14.94       4.91       3.33
O      16.21      19.19      14.08
O      16.20      16.07      13.50
O      16.32      17.22      11.52
O      16.63      12.32       8.09
O      16.14      10.75       9.66
O      22.30       5.66      13.06
O      23.51       4.99      11.23
O      19.38       7.53       7.36
O      18.61       8.99       8.91
O      10.68       5.94      13.39
O       9.72       5.13      11.47
O      13.79       7.79       7.80
O      15.50       7.72       9.32
O      22.32      14.11       1.13
O      23.44      12.12       1.32
O      19.19       9.63       4.89
O      18.16      11.59       5.46
O      10.61      14.27       1.43
O       9.67      12.19       1.40
O      13.71       9.72       5.18
O      14.92      11.61       5.57
O      15.59       1.87       0.92
O      17.85       1.98       1.23
O      17.54       6.84       4.83
O      15.26       6.91       5.06
O      16.55       9.21       6.74
