184

Zn       4.36      14.99      15.30
Zn       4.36       3.04       6.39
Zn       1.00      12.06       4.45
Zn       1.00       5.98      17.23
H       1.31      16.48      14.06
H       1.31       1.56       7.63
H       4.06      10.58       3.22
H       4.06       7.46      18.47
H       2.83      16.19      12.11
H       2.83       1.85       9.58
H       2.53      10.87       1.26
H       2.53       7.17      20.42
H       4.41      13.18      12.98
H       4.41       4.85       8.71
H       0.96      13.87       2.13
H       0.96       4.16      19.56
H       0.45      12.74      10.99
H       0.45       5.29      10.70
H       4.91      14.31       0.14
H       4.91       3.73      21.55
H       3.41      15.02      10.06
H       3.41       3.01      11.62
H       1.95      12.03      20.91
H       1.95       6.00       0.78
H       2.06      12.26       9.72
H       2.06       5.77      11.97
H       3.30      14.79      20.57
H       3.30       3.25       1.12
H       5.05      14.51       8.74
H       5.05       3.53      12.95
H       0.32      12.54      19.58
H       0.32       5.49       2.11
H       1.04      14.01       6.73
H       1.04       4.03      14.95
H       4.32      13.04      17.58
H       4.32       4.99       4.11
H       2.55      11.12       7.69
H       2.55       6.92      14.00
H       2.81      15.94      18.53
H       2.81       2.10       3.15
H       4.02      10.76       5.72
H       4.02       7.27      15.97
H       1.34      16.29      16.56
H       1.34       1.74       5.12
H       4.34       1.86      15.48
H       4.34      16.18       6.21
H       1.02       7.16       4.63
H       1.02      10.88      17.06
H       2.33       0.68      17.44
H       2.33      17.35       4.25
H       3.03       8.33       6.60
H       3.03       9.70      15.09
H       4.08       0.56      17.75
H       4.08      17.47       3.94
H       1.28       8.46       6.90
H       1.28       9.58      14.79
H       4.31       3.04      17.58
H       4.31      14.99       4.10
H       1.05       5.97       6.74
H       1.05      12.06      14.95
H       3.32       2.50      18.93
H       3.32      15.54       2.76
H       2.04       6.52       8.08
H       2.04      11.52      13.61
H       1.51       0.99      15.35
H       1.51      17.04       6.34
H       3.85       8.02       4.51
H       3.85      10.01      17.18
H       1.34       1.05      11.91
H       1.34      16.99       9.78
H       4.02       7.97       1.06
H       4.02      10.07      20.62
H       0.39       1.09      13.35
H       0.39      16.95       8.34
H       4.98       7.93       2.50
H       4.98      10.11      19.19
C       1.16      15.67      13.35
C       1.16       2.37       8.34
C       4.20      11.39       2.50
C       4.20       6.65      19.18
C       2.00      15.49      12.26
C       2.00       2.54       9.43
C       3.36      11.56       1.41
C       3.36       6.48      20.28
C       5.26      13.82      12.74
C       5.26       4.22       8.95
C       0.10      13.23       1.90
C       0.10       4.80      19.79
C       0.70      13.58      11.64
C       0.70       4.46      10.05
C       4.66      13.48       0.80
C       4.66       4.56      20.89
C       1.80      14.41      11.39
C       1.80       3.63      10.30
C       3.56      12.64       0.54
C       3.56       5.39      21.15
C       2.73      14.19      10.28
C       2.73       3.84      11.41
C       2.63      12.86      21.13
C       2.63       5.18       0.56
C       2.77      13.07       9.53
C       2.77       4.96      12.16
C       2.59      13.98      20.37
C       2.59       4.06       1.32
C       3.66      12.85       8.40
C       3.66       5.19      13.29
C       1.70      14.20      19.25
C       1.70       3.83       2.44
C       4.78      13.66       8.11
C       4.78       4.38      13.58
C       0.58      13.39      18.96
C       0.58       4.64       2.73
C       0.19      13.39       6.99
C       0.19       4.65      14.69
C       5.17      13.67      17.84
C       5.17       4.37       3.85
C       3.40      11.78       7.53
C       3.40       6.26      14.16
C       1.96      15.28      18.37
C       1.96       2.76       3.32
C       4.21      11.57       6.42
C       4.21       6.46      15.27
C       1.15      15.48      17.27
C       1.15       2.55       4.42
C       4.25      17.77      15.46
C       4.25       0.26       6.23
C       1.12       9.28       4.62
C       1.12       8.75      17.07
C       3.59       1.10      15.73
C       3.59      16.94       5.96
C       1.77       7.92       4.88
C       1.77      10.11      16.81
C       3.30       1.16      17.24
C       3.30      16.88       4.45
C       2.06       7.86       6.40
C       2.06      10.18      15.29
C       3.36       2.57      17.83
C       3.36      15.47       3.86
C       2.01       6.45       6.98
C       2.01      11.58      14.71
C       2.21       3.48      17.43
C       2.21      14.56       4.25
C       3.15       5.54       6.59
C       3.15      12.49      15.10
C       2.48       1.23      13.58
C       2.48      16.81       8.11
C       2.88       7.79       2.73
C       2.88      10.24      18.96
N       0.13      14.84      13.60
N       0.13       3.20       8.09
N       5.24      12.21       2.75
N       5.24       5.82      18.94
N       5.28      12.36       6.16
N       5.28       5.68      15.53
N       0.09      14.69      17.00
N       0.09       3.34       4.69
N       2.39       1.31      14.94
N       2.39      16.72       6.75
N       2.97       7.70       4.09
N       2.97      10.33      17.60
N       1.29       1.26      12.90
N       1.29      16.78       8.79
N       4.07       7.76       2.05
N       4.07      10.27      19.64
O       3.45      16.76      15.36
O       3.45       1.28       6.33
O       1.91      10.29       4.51
O       1.91       7.74      17.17
O       0.14      17.70      15.45
O       0.14       0.34       6.24
O       5.22       9.36       4.60
O       5.22       8.68      17.09
O       2.51       4.75      17.42
O       2.51      13.29       4.27
O       2.85       4.27       6.58
O       2.85      13.76      15.11
O       1.07       3.02      17.21
O       1.07      15.01       4.48
O       4.29       5.99       6.36
O       4.29      12.04      15.33
O       3.58       1.18      12.97
O       3.58      16.85       8.72
O       1.78       7.83       2.12
O       1.78      10.20      19.56
