92

Al       0.09      28.67      24.83
Al       0.09      14.33      16.55
H       3.49      15.72      12.70
H       3.41      15.57      10.24
H       0.65      12.26      10.56
H       0.72      12.45      13.03
H       0.65      16.41       5.99
H       3.41      13.10       6.31
H       3.49      12.95       3.85
H       0.72      16.21       3.52
H       3.49      16.97      19.68
H       3.41      19.18      20.77
H       0.65      20.56      17.75
H       0.72      18.33      16.69
H       0.65      22.44      23.63
H       3.41      23.82      20.61
H       3.49      26.03      21.70
H       0.72      24.68      24.69
H       3.49      10.31      17.27
H       3.41      36.92      18.64
H       0.65      38.85      21.34
H       0.72      12.22      19.94
H       0.65      32.82      20.04
H       3.41      34.75      22.74
H       3.49      32.69      24.11
H       0.72      30.78      21.44
C       2.13      30.37      23.69
C       2.13      14.47       2.04
C       2.13      26.83      23.92
C       2.13      14.20      14.51
C       2.13      16.17      17.46
C       2.13      12.63      17.69
C       2.10      14.11      13.02
C       2.84      14.99      12.23
C       2.79      14.90      10.84
C       1.98      13.93      10.21
C       1.27      13.03      11.02
C       1.31      13.13      12.41
C       1.91      13.84       8.74
C       1.91      14.83       7.81
C       1.27      15.64       5.53
C       1.98      14.74       6.34
C       2.79      13.77       5.71
C       2.84      13.68       4.33
C       2.10      14.56       3.53
C       1.31      15.54       4.14
C       2.10      17.50      18.12
C       2.84      17.75      19.28
C       2.79      19.00      19.90
C       1.98      20.03      19.37
C       1.27      19.77      18.18
C       1.31      18.53      17.58
C       1.91      21.35      20.03
C       1.91      21.65      21.35
C       1.27      23.23      23.20
C       1.98      22.97      22.01
C       2.79      24.01      21.48
C       2.84      25.25      22.10
C       2.10      25.50      23.26
C       1.31      24.48      23.80
C       2.10      11.39      18.51
C       2.84      38.93      18.15
C       2.79      37.77      18.92
C       1.98      37.71      20.07
C       1.27      38.87      20.45
C       1.31      40.02      19.67
C       1.91      36.49      20.89
C       1.91      35.18      20.49
C       1.27      32.80      20.93
C       1.98      33.96      21.31
C       2.79      33.90      22.46
C       2.84      32.74      23.23
C       2.10      31.61      22.87
C       1.31      31.65      21.71
Br       1.71      12.02       8.12
Br       1.71      16.65       8.44
Br       1.71      22.80      18.77
Br       1.71      20.21      22.61
Br       1.71      36.85      22.77
Br       1.71      34.82      18.61
O       1.19      27.10      24.74
O       1.19      29.53      23.51
O       1.19      15.04       1.40
O       3.10      27.61      23.64
O       3.10      13.83       1.51
O       3.10      30.23      24.51
O       1.19      13.47      17.87
O       1.19      13.63      15.15
O       1.19      15.90      16.64
O       3.10      12.78      16.87
O       3.10      15.39      17.74
O       3.10      14.84      15.04
