166

Ho       6.38       3.69      12.32
Ho       0.00       7.38      12.32
Ho       0.00       7.38       4.11
Ho       6.38       3.69       4.11
Cu      -3.19       5.53      16.42
Cu       0.00      11.06      16.42
Cu       3.19       5.53       0.00
Cu       3.19       5.53       8.21
Cu       0.00      11.06       8.21
Cu       9.58       5.53       8.21
H      10.43       2.65      13.05
H       9.30       1.67      14.06
H       3.46       0.71      13.05
H       3.18       2.17      14.06
H       5.26       7.71      13.05
H       6.67       7.22      14.06
H      -4.04       8.42      13.05
H      -2.91       9.39      14.06
H       2.92      10.36      13.05
H       3.20       8.89      14.06
H       1.12       3.35      13.05
H      -0.29       3.85      14.06
H       4.04       8.42      11.58
H       2.91       9.39      10.57
H      -2.92      10.36      11.58
H      -3.20       8.89      10.57
H      -1.12       3.35      11.58
H       0.29       3.84      10.57
H       2.34       2.65      11.58
H       3.47       1.67      10.57
H       9.31       0.71      11.58
H       9.58       2.17      10.57
H       7.50       7.71      11.58
H       6.09       7.22      10.57
H      -4.04       8.42       3.37
H      -2.91       9.39       2.36
H       2.92      10.36       3.37
H       3.20       8.89       2.36
H       1.12       3.35       3.37
H      -0.29       3.84       2.36
H      10.43       2.65       3.37
H       9.30       1.67       2.36
H       3.46       0.71       3.37
H       3.18       2.17       2.36
H       5.26       7.71       3.37
H       6.67       7.22       2.36
H       2.34       2.65       4.84
H       3.47       1.67       5.85
H       9.31       0.71       4.84
H       9.59       2.17       5.85
H       7.50       7.71       4.84
H       6.09       7.22       5.85
H       4.04       8.42       4.84
H       2.91       9.39       5.85
H      -2.92      10.36       4.84
H      -3.20       8.89       5.85
H      -1.12       3.35       4.84
H       0.29       3.84       5.85
C       9.02       3.80      14.21
C       9.39       2.56      13.41
C       5.16       1.35      14.21
C       3.90       1.65      13.41
C       4.97       5.92      14.21
C       5.86       6.86      13.41
C      -2.64       7.27      14.21
C      -3.00       8.50      13.41
C       1.22       9.72      14.21
C       2.48       9.42      13.41
C       1.42       5.15      14.21
C       0.53       4.21      13.41
C       2.64       7.27      10.42
C       3.00       8.51      11.22
C      -1.22       9.72      10.42
C      -2.48       9.42      11.22
C      -1.41       5.15      10.42
C      -0.52       4.21      11.22
C       3.75       3.80      10.42
C       3.38       2.56      11.22
C       7.61       1.35      10.42
C       8.86       1.65      11.22
C       7.80       5.92      10.42
C       6.91       6.86      11.22
C      -2.64       7.26       2.21
C      -3.00       8.50       3.01
C       1.22       9.72       2.21
C       2.48       9.42       3.01
C       1.42       5.15       2.21
C       0.53       4.21       3.01
C       9.02       3.80       2.21
C       9.39       2.56       3.01
C       5.16       1.35       2.21
C       3.91       1.65       3.01
C       4.97       5.92       2.21
C       5.86       6.86       3.02
C       3.75       3.80       6.00
C       3.38       2.56       5.20
C       7.61       1.35       6.00
C       8.86       1.65       5.20
C       7.80       5.92       6.00
C       6.91       6.86       5.20
C       2.64       7.26       6.00
C       3.00       8.50       5.20
C      -1.22       9.72       6.00
C      -2.48       9.42       5.20
C      -1.41       5.15       6.00
C      -0.53       4.21       5.20
O       7.94       4.39      13.95
O       9.87       4.11      15.11
O       6.21       1.99      13.95
O       5.00       0.45      15.11
O       5.00       4.69      13.95
O       4.28       6.50      15.11
O      -1.56       6.68      13.95
O      -3.49       6.96      15.11
O       0.17       9.08      13.95
O       1.38      10.61      15.11
O       1.38       6.38      13.95
O       2.11       4.56      15.11
O       1.56       6.68      10.68
O       3.49       6.96       9.52
O      -0.17       9.08      10.68
O      -1.38      10.61       9.52
O      -1.38       6.38      10.68
O      -2.11       4.56       9.53
O       4.83       4.39      10.68
O       2.89       4.11       9.52
O       6.56       1.99      10.68
O       7.76       0.46       9.52
O       7.77       4.69      10.68
O       8.49       6.50       9.52
O      -1.56       6.68       2.47
O      -3.49       6.96       1.31
O       0.17       9.07       2.47
O       1.38      10.61       1.31
O       1.38       6.38       2.47
O       2.11       4.56       1.31
O       7.94       4.39       2.47
O       9.87       4.11       1.31
O       6.21       1.99       2.47
O       5.00       0.45       1.31
O       5.00       4.69       2.47
O       4.28       6.50       1.31
O       4.83       4.39       5.74
O       2.90       4.11       6.90
O       6.56       1.99       5.74
O       7.77       0.45       6.90
O       7.77       4.69       5.74
O       8.49       6.50       6.90
O       1.56       6.68       5.74
O       3.49       6.96       6.90
O      -0.17       9.07       5.74
O      -1.38      10.61       6.90
O      -1.38       6.38       5.74
O      -2.11       4.56       6.90
O       8.48       2.48      12.32
O       4.29       2.48      12.32
O       6.38       6.11      12.32
O      -2.10       8.59      12.32
O       2.10       8.59      12.32
O       0.00       4.95      12.32
O      -2.10       8.59       4.11
O       2.10       8.59       4.10
O       0.00       4.95       4.11
O       8.48       2.48       4.11
O       4.29       2.48       4.10
O       6.39       6.11       4.11
