86

Zn       3.37       5.64      11.59
Zn       6.12       5.60      11.62
H       7.48       2.27      21.91
H       3.50       3.17      15.17
H       5.68       5.84      18.76
H       2.36       9.71       9.79
H       2.42       1.23       9.63
H       8.22       5.22       8.43
H       1.14       4.55      21.91
H       6.39       6.55       7.02
H       3.44       3.48       7.83
C       4.65       3.05      11.71
C       6.60       2.60      22.46
C       7.05       2.89       0.65
C       5.95       3.35       1.39
C       4.78       3.77       0.69
C       3.62       4.23       1.38
C       2.49       4.57       0.63
C       2.04       4.24      22.46
C       5.97       3.43       2.87
C       3.65       4.44       2.84
C       5.73       5.37       5.35
C       4.88       5.43       9.03
C       5.76       5.73       6.69
C       4.92       5.05       7.58
C       4.11       4.00       7.14
C       4.14       3.65       5.80
C       4.93       4.33       4.87
C       3.94       3.34      17.27
C       4.00       3.76      15.95
C       4.70       4.92      15.62
C       5.31       5.67      16.64
C       5.22       5.25      17.97
C       4.74       8.18      11.81
C       4.54       4.08      18.29
C       3.63       0.78      11.46
C       4.67       1.57      11.93
C       5.71       0.88      12.58
C       5.71      10.45      12.62
C       4.70       9.67      12.00
C       3.61      10.39      11.50
C       2.31      10.24      10.75
C       2.35       0.83      10.66
C       8.95       5.16      10.54
C       4.77       5.33      14.18
C       8.97       6.12      12.55
C       0.54       6.17      12.50
C       0.48       5.22      10.48
C       0.53       4.72       9.04
C       8.78       4.60       9.14
C       3.19       3.99      20.30
C       5.55       3.14      20.29
C       5.49       3.04      21.78
C       4.33       3.46      22.48
C       3.18       3.87      21.78
N       4.42       3.70      19.67
N       4.85       4.05       3.47
N       8.23       5.61      11.58
N       1.24       5.72      11.47
Cl       6.14       7.14      16.27
Cl       6.94       1.77      13.40
Cl       7.00       9.72      13.47
Cl       0.92       9.56      11.64
Cl       8.50       2.31       1.36
Cl       1.06       5.91       7.86
O       3.52       3.61      11.89
O       6.54       2.82      19.64
O       6.89       3.04       3.58
O       2.75       4.96       3.49
O       5.72       3.61      11.33
O       3.77       5.29       9.62
O       5.97       5.84       9.56
O       3.63       7.65      11.50
O       5.85       7.58      11.93
O       3.70       5.71      13.64
O       5.91       5.20      13.62
O       2.23       4.39      19.66
F       1.26       1.46      11.26
F       8.37       6.61      13.62
F       1.16       6.69      13.53
F       1.15       3.52       8.83
F       8.33       3.30       9.08
F       1.35       4.96       1.24
F       6.48       6.06       4.45
F       3.38       2.62       5.36
F       3.27       2.20      17.59
