130

Zn       6.04       8.06       9.60
Zn       8.81       8.06       9.62
H       5.35       8.47       5.39
H       9.47       7.30       5.37
H       6.54      14.93       7.73
H       8.32      14.91       7.73
H       1.29       6.89      11.46
H      13.60       6.90      11.49
H      13.56      10.15       9.69
H       1.29      10.15       9.68
H      13.57       9.38      11.28
H       1.30       9.38      11.26
H      13.56       6.91       7.75
H       1.28       6.95       7.70
H      13.53       8.67       7.56
H       1.26       8.72       7.56
H       5.27       8.29       2.88
H       9.39       7.06       2.86
H       5.32       7.34      13.76
H       9.51       8.28      13.92
H       6.23      14.89      11.48
H       8.68      14.87      11.46
H       6.11       1.21      11.51
H       8.64       1.18      11.47
H       9.51       1.13       9.92
H       5.20       1.20       9.98
H       6.44       1.24       7.77
H       8.20       1.23       7.74
H      11.62       5.55      10.99
H      12.96       4.59      11.70
H      12.81       3.01       9.72
H      11.27       3.10      10.61
H      11.45       3.97       9.07
H       0.68       4.23      11.18
H       2.33       4.84      11.56
H       3.21       3.66       9.51
H       2.44       2.52      10.64
H       1.58       3.04       9.17
H       3.53       7.87      15.30
H       4.27       8.87      16.59
H       3.30       7.40      18.34
H       2.00       7.99      17.28
H       2.60       6.33      17.10
H      11.14       7.27      15.41
H      10.38       6.23      16.65
H      11.46       7.56      18.46
H      12.70       6.95      17.34
H      12.19       8.65      17.25
H      10.78      14.02      11.46
H      11.28      15.66      10.96
H      12.37      14.71       8.91
H      13.03      13.95      10.38
H      11.84      13.07       9.38
H       3.63      15.72      11.03
H       4.14      14.08      11.51
H       3.03      13.15       9.44
H       1.86      14.04      10.47
H       2.50      14.80       8.99
C       7.43       5.46       9.63
C       7.28       7.54       1.26
C       6.19       7.39      15.74
C       8.56       7.90      15.83
C       6.22       7.52      14.36
C       8.59       8.02      14.44
C       7.41       7.83      13.71
C       7.36       7.60      16.50
C       6.11       0.82      10.48
C       8.61       0.79      10.44
C       8.71      15.27      10.43
C       6.20      15.30      10.45
C       7.42      12.09       9.68
C       7.36       1.35       9.73
C       7.44      14.76       9.69
C       7.44       8.01       7.01
C       7.44      15.31       8.24
C       7.33       0.83       8.27
C       7.42      13.31       9.68
C       7.38       2.80       9.72
C       7.41       4.01       9.69
C      13.94       6.77      10.45
C       0.92       6.77      10.42
C      13.96       9.30      10.25
C       0.90       9.30      10.24
C      13.44       7.99       9.62
C       1.41       7.99       9.59
C       0.88       7.87       8.14
C      13.94       7.85       8.16
C       2.86       7.99       9.59
C      11.99       8.00       9.62
C       7.41      10.65       9.66
C       7.43       7.96      12.21
C       6.23       8.18       4.82
C       8.56       7.50       4.81
C       6.18       8.07       3.44
C       8.51       7.38       3.42
C       7.33       7.66       2.73
C       7.41       7.90       5.52
C       7.33       7.53      17.97
C      12.47       4.88      10.75
C      11.98       3.67       9.99
C       1.66       4.52      10.74
C       2.26       3.37       9.96
C       3.93       7.86      16.33
C       2.90       7.36      17.32
C      10.77       7.24      16.44
C      11.84       7.63      17.43
C      11.00      14.66      10.58
C      12.13      14.06       9.76
C       3.90      14.72      10.64
C       2.75      14.14       9.84
N       8.23       6.81       0.64
N       6.24       8.14       0.62
N       8.27       6.81      18.61
N       6.31       8.17      18.59
N       4.01       8.03       9.59
N      10.84       8.04       9.63
O       6.33       6.03       9.35
O       8.55       6.02       9.88
O       6.34       8.30       7.59
O       8.55       7.79       7.59
O       6.29      10.08       9.88
O       8.52      10.07       9.41
O       6.32       7.77      11.61
O       8.54       8.24      11.66
O      13.43       5.57       9.92
O       1.48       5.62       9.83
O       5.06       6.97      16.41
O       9.68       8.18      16.59
O       9.84      14.73       9.75
O       5.04      14.80       9.79
