148

Zn      30.33       3.64      14.48
Zn      22.70       7.96       1.98
Zn      15.30       3.65      14.52
Zn      13.72       0.88      14.49
Zn      15.26      12.33       8.18
Zn      30.31      12.30       8.15
Zn      13.61      13.32       5.57
Zn      22.77      -0.76       8.26
H      10.39       4.88       9.38
H      17.85      -0.22       9.03
H       8.99       2.66       1.60
H      21.12       2.30       5.39
H      25.93      11.70       2.39
H       9.85       5.67       4.68
H      11.82       6.82       5.71
H      27.72      12.82       3.71
H      17.80       8.56       2.63
H      21.64      14.12       3.47
H      10.76      -0.77       5.00
H      28.53       6.93       7.94
H      11.39      -1.21       7.30
H       9.08      -1.42       8.12
H      23.35       0.33      13.91
H      27.46       1.44      14.58
H      15.39       7.69      12.98
H      16.03       6.48       0.25
H      11.94       4.79      11.28
H      21.11       4.31       3.90
H       6.91       3.95       1.36
H       9.27       1.09       3.53
H      30.01       8.83       8.38
H      11.95       9.29       5.69
H      17.86      13.74       5.50
H      16.05       9.58       4.07
H      23.91      -0.49      11.66
H      15.37       9.67      11.45
H      16.22       0.90      10.53
H      11.10       4.67       0.71
H      21.80      -1.70      14.30
H      21.36      -1.72      11.87
H      12.59       0.70      10.97
C       4.63       4.99       2.08
C      24.38       0.37      13.55
C      25.40       0.92      14.38
C      13.73       5.64      13.05
C      26.69       1.00      13.94
C      11.91       5.68      10.65
C      11.04       5.73       9.59
C      29.23       6.88       8.77
C      11.81       7.95       9.02
C      12.74       7.93      10.10
C      12.78       6.76      10.95
C       9.83      -0.94       8.75
C      13.73       6.73      12.03
C      14.66       7.75      12.17
C      14.64       8.87      11.32
C      20.17       9.43       2.01
C      13.68       8.98      10.33
C      18.88       0.05      14.28
C      20.02      -0.56      14.77
C      20.91      -1.20      13.90
C      20.66      -1.22      12.55
C      19.50      -0.60      12.01
C       9.46      -0.46      10.04
C      18.55       0.05      12.89
C      17.37       0.61      12.31
C      17.14       0.50      10.95
C      18.06      -0.14      10.09
C      16.27       1.28      13.09
C      19.23      -0.66      10.61
C       7.00       3.21       2.15
C       8.16       2.49       2.29
C       8.32       1.59       3.36
C       7.26       1.35       4.22
C      10.48       0.14      10.87
C       5.99       1.97       4.03
C       5.90       2.99       3.02
C       4.74       3.83       3.00
C      21.96       3.62       3.90
C      21.98       2.52       4.76
C      25.30       9.22       2.20
C       4.83       1.69       4.82
C       8.97       7.49       3.97
C       9.95       6.76       4.62
C      11.04       7.41       5.22
C       8.13      -0.52      10.52
C      11.12       8.78       5.21
C      10.13       9.56       4.55
C       9.04       8.91       3.85
C       8.16       9.73       3.08
C      26.60      11.10       3.02
C      27.62      11.74       3.75
C      11.18       1.24      13.02
C      10.22      10.99       4.52
C      20.58      12.29       3.14
C      20.74      13.54       3.71
C      26.03      -0.02      11.79
C      19.76      14.06       4.57
C      18.63      13.32       4.85
C      18.43      12.04       4.29
C      19.43      11.48       3.40
C      19.17      10.19       2.84
C      17.98       9.54       3.08
C      16.99      10.11       3.90
C      11.80       0.25      10.36
C      17.23      11.32       4.52
C      20.25      -1.24       9.68
C      27.06       0.55      12.64
C      16.17      11.87       5.43
C      13.67      10.25       9.53
C      22.91       0.42       5.61
C      11.21      11.71       5.38
C       7.07      -1.12       9.65
C      12.10      -0.21       9.11
C      11.11      -0.82       8.29
C      10.13       0.62      12.15
C      24.69      -0.09      12.29
Cl       8.75       6.01       0.32
Cl       7.59       0.42       5.65
Cl       7.64       6.58       3.34
Cl      13.71      -0.06       8.48
Cl      21.83      11.79       2.04
O      22.82       7.93       0.02
O       4.79      -0.66       4.95
O      29.47      11.39       6.62
O       4.76       4.78       0.83
O      24.44      -0.33       9.20
O      11.93      12.61       4.83
O       7.16      -2.38       9.44
O      14.80      10.67       9.13
O      22.55       0.55       6.82
O      19.93      -2.30       9.04
O      15.04      12.13       4.90
O      19.98       9.42       0.75
O      30.86       5.18      13.40
O      21.05       8.79       2.66
O      16.36       2.53      13.28
O      24.17       9.02       2.74
O      12.12       0.47      13.42
O       7.33       9.15       0.96
O      29.31       2.48      13.27
O      15.30       0.52      13.39
O      22.64       6.11       2.64
O      14.87       5.29      13.51
O      22.78      -2.58       7.53
O      21.35      -0.61       9.60
O      16.48      12.00       6.66
O      30.80      10.82       9.35
