248

Al      13.00       6.50       0.00
Al       0.00       0.00       0.00
Al      -3.25      -3.25      13.09
Al       3.25      -3.25      13.09
Al       0.00       9.75       0.34
Al       6.50      -3.25      13.43
Al       6.50      -3.25      25.83
Al       0.00       9.75      12.75
H      -4.76       1.64      26.14
H       4.76       4.86      26.14
H       8.11      -1.51      13.05
H       4.89       8.01      13.05
H      11.26       4.86       0.04
H       1.74       1.64       0.04
H      -1.61       8.01      13.12
H       1.61      -1.51      13.12
H       4.82       4.21      23.08
H      -4.82       2.29      23.08
H       5.54       8.07      10.00
H       7.46      -1.57       9.99
H       1.68       2.29       3.09
H      11.32       4.21       3.09
H       0.96      -1.57      16.18
H      -0.96       8.07      16.18
H       4.38       4.65      20.65
H      -4.38       1.85      20.65
H       5.10       7.63       7.56
H       7.90      -1.13       7.56
H       2.12       1.85       5.52
H      10.88       4.65       5.53
H       1.40      -1.13      18.61
H      -1.40       7.63      18.61
H       4.59       0.42      19.87
H      -4.59       6.08      19.87
H       9.33       7.84       6.78
H       3.67      -1.34       6.78
H       1.91       6.08       6.30
H      11.09       0.42       6.30
H      -2.83      -1.34      19.39
H       2.83       7.84      19.39
H       5.04      -0.00      22.29
H      -5.04       6.50      22.29
H       9.75       8.29       9.20
H       3.25      -1.79       9.20
H       1.46       6.50       3.89
H      11.54      -0.00       3.89
H      -3.25      -1.79      16.98
H       3.25       8.29      16.98
H       2.37       1.99      16.93
H      -2.37       4.51      16.93
H       7.76       5.63       3.84
H       5.24       0.88       3.84
H       4.13       4.51       9.25
H       8.87       1.99       9.24
H      -1.26       0.88      22.33
H       1.26       5.63      22.33
H       2.59       0.12      15.28
H      -2.59       6.38      15.28
H       9.63       5.84       2.19
H       3.37       0.66       2.19
H       3.91       6.38      10.90
H       9.09       0.12      10.90
H      -3.13       0.66      23.99
H       3.13       5.84      23.99
H       6.68      -0.46      16.46
H       6.32       6.96      16.46
H      10.21       9.93       3.37
H       2.79       9.57       3.37
H      -0.18       6.96       9.72
H       0.18      -0.46       9.72
H      -3.71      -3.43      22.81
H       3.71      -3.07      22.81
H       6.46       1.34      18.17
H       6.55       5.16      18.17
H       8.41       9.71       5.08
H       4.59       9.80       5.08
H       0.05       5.16       8.01
H      -0.04       1.34       8.01
H      -1.91      -3.21      21.10
H       1.91      -3.29      21.10
C       5.33       1.82      24.24
C      -5.33       4.68      24.24
C       7.93       8.58      11.15
C       5.07      -2.08      11.15
C       1.17       4.68       1.93
C      11.83       1.82       1.93
C      -1.43      -2.08      15.02
C       1.43       8.58      15.02
C       4.95       2.08      22.82
C      -4.95       4.42      22.82
C       7.67       8.20       9.73
C       5.33      -1.70       9.73
C       1.55       4.42       3.36
C      11.45       2.08       3.36
C      -1.17      -1.70      16.44
C       1.17       8.20      16.44
C       4.76       3.39      22.37
C      -4.76       3.11      22.37
C       6.36       8.01       9.28
C       6.64      -1.51       9.28
C       1.74       3.11       3.81
C      11.26       3.39       3.81
C       0.14      -1.50      16.90
C      -0.14       8.01      16.90
C       4.53       3.64      21.02
C      -4.53       2.86      21.02
C       6.11       7.78       7.93
C       6.89      -1.28       7.93
C       1.97       2.86       5.15
C      11.03       3.64       5.15
C       0.39      -1.28      18.24
C      -0.39       7.78      18.24
C       4.49       2.57      20.11
C      -4.49       3.93      20.10
C       7.18       7.74       7.02
C       5.82      -1.24       7.02
C       2.01       3.93       6.07
C      10.99       2.57       6.07
C      -0.68      -1.24      19.16
C       0.68       7.74      19.16
C       4.65       1.26      20.57
C      -4.65       5.25      20.57
C       8.50       7.90       7.48
C       4.51      -1.40       7.48
C       1.85       5.25       5.61
C      11.15       1.26       5.61
C      -1.99      -1.40      18.70
C       2.00       7.90      18.70
C       4.89       1.01      21.92
C      -4.89       5.49      21.92
C       8.74       8.14       8.83
C       4.26      -1.64       8.83
C       1.61       5.49       4.26
C      11.39       1.01       4.26
C      -2.24      -1.64      17.35
C       2.24       8.14      17.35
C       4.21       2.87      18.67
C      -4.21       3.63      18.67
C       6.88       7.46       5.58
C       6.12      -0.96       5.58
C       2.29       3.63       7.51
C      10.71       2.87       7.51
C      -0.38      -0.96      20.60
C       0.38       7.46      20.60
C       4.39       1.77      17.67
C       8.61       4.74      17.67
C       7.98       7.64       4.58
C       5.02      11.86       4.58
C       2.11       4.73       8.51
C      -2.11       1.77       8.51
C      -1.48      -1.14      21.60
C       1.48      -5.36      21.60
C       3.31       1.44      16.83
C      -3.31       5.06      16.83
C       8.31       6.56       3.74
C       4.69      -0.06       3.74
C       3.19       5.06       9.35
C       9.81       1.44       9.35
C      -1.81      -0.06      22.43
C       1.81       6.56      22.43
C       3.43       0.41      15.91
C      -3.43       6.09      15.91
C       9.34       6.68       2.82
C       3.66      -0.18       2.82
C       3.07       6.09      10.27
C       9.93       0.41      10.27
C      -2.84      -0.18      23.36
C       2.84       6.68      23.36
C       4.65      -0.29      15.78
C       8.36       6.79      15.78
C      10.04       7.90       2.69
C       2.96      11.61       2.69
C       1.86       6.79      10.40
C      -1.86      -0.29      10.40
C      -3.54      -1.39      23.48
C       3.54      -5.10      23.49
C       5.74       0.07      16.58
C       7.26       6.43      16.58
C       9.68       8.99       3.50
C       3.32      10.51       3.50
C       0.76       6.43       9.59
C      -0.76       0.07       9.59
C      -3.18      -2.49      22.68
C       3.18      -4.01      22.68
C       5.61       1.08      17.54
C       7.40       5.42      17.54
C       8.67       8.86       4.45
C       4.33      10.65       4.45
C       0.90       5.42       8.64
C      -0.89       1.08       8.64
C      -2.17      -2.35      21.73
C       2.17      -4.14      21.73
C       4.77      -1.41      14.81
C       8.23       7.91      14.81
C      11.16       8.02       1.72
C       1.84      11.48       1.72
C       1.73       7.91      11.37
C      -1.73      -1.41      11.37
C      -4.66      -1.52      24.46
C       4.66      -4.98      24.46
O       0.84       8.11       0.33
O      12.16      11.39       0.33
O       8.14      -2.41      13.42
O       4.86       8.91      13.42
O       5.66      -1.61      25.85
O      -5.66      -4.89      25.85
O      -1.64       8.91      12.76
O       1.64      -2.41      12.76
O       5.75       0.65      24.52
O      -5.75       5.85      24.52
O       9.10       9.00      11.43
O       3.90      -2.50      11.43
O       0.75       5.85       1.66
O      12.25       0.65       1.66
O      -2.60      -2.50      14.74
O       2.60       9.00      14.74
O       5.26       2.78      25.07
O      -5.26       3.72      25.07
O       6.97       8.51      11.99
O       6.03      -2.01      11.99
O       1.24       3.72       1.10
O      11.76       2.78       1.10
O      -0.47      -2.01      14.19
O       0.47       8.51      14.19
O       5.89      -2.02      14.75
O       7.11       8.52      14.75
O      11.77       9.14       1.66
O       1.23      10.36       1.66
O       0.61       8.52      11.43
O      -0.61      -2.02      11.43
O      -5.27      -2.64      24.52
O       5.27      -3.86      24.52
O       3.75      -1.69      14.09
O       9.25       8.19      14.09
O      11.44       7.00       1.00
O       1.56      12.50       1.00
O       2.75       8.19      12.09
O      -2.75      -1.69      12.09
O      -4.94      -0.50      25.17
O       4.94      -6.00      25.17
O       3.82       3.98      18.30
O      -3.82       2.52      18.30
O       5.77       7.07       5.21
O       7.23      -0.57       5.21
O       2.68       2.52       7.87
O      10.32       3.98       7.87
O       0.73      -0.57      20.96
O      -0.73       7.07      20.96
