108

Zn       4.16       7.49       8.43
Zn       7.06       7.59       8.67
H       7.95       5.99       4.68
H       3.00       7.36      12.62
H      11.56       7.09       6.48
H      -0.31       9.60       9.33
H       9.07       7.19       6.77
H       2.17       9.32       9.17
H      11.91       8.41      10.57
H      -0.69       5.69       7.55
H       7.09       6.10      12.60
H       3.89       7.22       4.12
H       8.32       6.00       0.21
H       2.62       5.45      16.69
H       2.77       6.57      14.96
H       8.09       5.35       2.28
H       3.87       0.82       9.55
H       7.57      14.26       8.81
H       3.92       3.31       9.62
H       7.56      11.77       8.71
H       7.75       3.31       7.70
H       3.32      11.79       8.07
H       7.68       0.83       7.52
H       3.32      14.28       8.13
H       7.10       9.60      12.51
H       8.60      10.17      13.27
H       7.57      11.31      12.38
H       9.56      10.67      10.96
H       8.05      10.10      10.24
H       8.40       7.84      11.28
H       9.97       8.39      11.91
H       4.03       4.08       5.83
H       2.62       3.01       5.74
H       3.13       3.94       4.31
H       1.15       5.08       5.37
H       2.60       6.08       5.53
H       2.96       5.07       7.85
H       1.38       4.29       7.69
H       3.85       8.94       1.46
H       4.64       8.14       0.09
H       2.86       8.30       0.13
H       3.48       5.96       0.76
H       2.76       6.78       2.14
H       8.53       6.82      15.07
H       7.65       6.59      16.59
H       9.05       5.56      16.20
H       6.93       4.28      15.79
H       7.82       4.54      14.29
C       5.87       4.95       8.71
C       5.45      10.13       8.38
C       4.71       1.36       9.11
C       6.64      13.72       8.63
C       4.74       2.75       9.17
C       6.64      12.33       8.58
C       5.84       3.46       8.66
C       5.44      11.63       8.39
C       6.91       2.75       8.09
C       4.25      12.35       8.23
C       6.86       1.36       8.01
C       4.25      13.74       8.27
C       5.77       0.64       8.53
C       5.44      14.45       8.47
C      11.12       7.39       7.43
C       0.11       8.69       8.91
C       9.75       7.43       7.58
C       1.49       8.54       8.83
C       9.91       8.14       9.80
C       1.31       6.41       7.89
C      11.31       8.14       9.69
C      -0.09       6.53       7.90
C       5.82       7.11       5.97
C       5.24       7.36      11.10
C      11.94       7.74       8.51
C      -0.71       7.66       8.43
C       5.92       6.68       4.54
C       5.08       6.82      12.48
C       7.10       6.14       4.02
C       3.84       6.90      13.14
C       7.17       5.79       2.68
C       3.72       6.44      14.44
C       6.08       6.01       1.80
C       4.81       5.86      15.13
C       4.86       6.49       2.34
C       6.04       5.71      14.44
C       4.81       6.81       3.70
C       6.15       6.20      13.14
C       6.22       5.89       0.35
C       4.71       5.58      16.56
C       9.25       8.52      11.09
C       8.72       9.97      11.10
C       7.96      10.28      12.39
C       1.97       5.17       7.38
C       2.14       5.14       5.85
C       3.02       3.97       5.40
C       3.65       6.77       1.48
C       3.75       8.12       0.74
C       7.25       5.06      15.08
C       8.17       6.06      15.78
N       9.15       7.78       8.74
N       2.08       7.43       8.34
O       4.75       5.54       8.87
O       6.58       9.57       8.58
O       7.00       5.52       8.56
O       4.34       9.53       8.18
O       4.65       7.14       6.48
O       6.43       7.36      10.62
O       6.90       7.43       6.57
O       4.20       7.75      10.48
