184

Zn       7.05      12.37       0.00
Zn       9.91      12.37       0.00
Zn       7.05      24.73      12.87
Zn       9.91       0.00      12.87
H       6.33       9.57      22.56
H      10.62      15.16       3.19
H       6.33      15.16       3.18
H      10.62       9.57      22.56
H      10.62       9.57       3.19
H       6.33      15.16      22.56
H      10.62      15.16      22.56
H       6.33       9.57       3.19
H       6.33      21.67       9.95
H      10.62       3.06      15.79
H       6.33       3.06      15.79
H      10.62      21.67       9.95
H      10.62      21.67      15.79
H       6.33       3.06       9.95
H      10.62       3.06       9.95
H       6.33      21.67      15.79
H       5.36       8.28      20.95
H      11.60      16.45       4.80
H       5.36      16.45       4.80
H      11.60       8.28      20.95
H      11.60       8.29       4.80
H       5.36      16.45      20.94
H      11.60      16.45      20.94
H       5.36       8.29       4.80
H       5.36      20.11       8.60
H      11.60       4.62      17.15
H       5.36       4.62      17.15
H      11.60      20.11       8.60
H      11.60      20.11      17.15
H       5.36       4.62       8.60
H      11.60       4.62       8.60
H       5.36      20.11      17.15
H       2.75      15.46      25.75
H      14.21       9.27       0.00
H       2.75       9.27       0.00
H      14.21      15.46      25.75
H       2.74       3.09      12.87
H      14.21      21.64      12.87
H       2.74      21.64      12.87
H      14.21       3.09      12.87
C       8.48      14.13      23.83
C       8.48      10.60       1.92
C       8.48      14.13       1.92
C       8.48      10.60      23.83
C       8.48       1.85      11.04
C       8.48      22.89      14.71
C       8.48       1.85      14.71
C       8.48      22.89      11.04
C       4.15      13.51      25.75
C      12.80      11.22       0.00
C       4.15      11.22       0.00
C      12.80      13.51      25.75
C       4.15       1.15      12.87
C      12.80      23.58      12.87
C       4.15      23.58      12.87
C      12.80       1.15      12.87
C       2.01      12.37       0.00
C      14.94      12.37      25.75
C       2.01      24.73      12.87
C      14.94      24.73      12.87
C       0.61      12.37       0.00
C      16.35      12.37      25.75
C       0.61      24.73      12.87
C      16.35      24.73      12.87
C       7.26       8.34      21.04
C       9.69      16.39       4.71
C       7.26      16.39       4.71
C       9.69       8.34      21.04
C       9.69       8.35       4.71
C       7.26      16.39      21.04
C       9.69      16.39      21.04
C       7.26       8.35       4.71
C       7.26      20.18       8.68
C       9.69       4.55      17.07
C       7.26       4.55      17.07
C       9.69      20.18       8.68
C       9.69      20.18      17.07
C       7.26       4.55       8.68
C       9.69       4.55       8.68
C       7.26      20.18      17.07
C       7.26       9.22      22.13
C       9.69      15.51       3.62
C       7.26      15.51       3.62
C       9.69       9.22      22.13
C       9.69       9.22       3.62
C       7.26      15.51      22.13
C       9.69      15.51      22.13
C       7.26       9.22       3.62
C       7.26      21.24       9.59
C       9.69       3.49      16.16
C       7.26       3.49      16.16
C       9.69      21.24       9.59
C       9.69      21.24      16.16
C       7.26       3.49       9.59
C       9.69       3.49       9.59
C       7.26      21.24      16.16
C       8.48       9.65      22.67
C       8.48      15.08       3.08
C       8.48       9.65       3.08
C       8.48      15.08      22.67
C       8.48      21.77      10.04
C       8.48       2.96      15.71
C       8.48      21.77      15.71
C       8.48       2.96      10.04
C       8.48       7.88      20.47
C       8.48      16.85       5.28
C       8.48       7.88       5.28
C       8.48      16.85      20.47
C       8.48      19.63       8.19
C       8.48       5.10      17.56
C       8.48      19.63      17.56
C       8.48       5.10       8.19
C       8.48       6.96      19.41
C       8.48      17.77       6.34
C       8.48       6.96       6.34
C       8.48      17.77      19.41
C       8.48      18.61       7.23
C       8.48       6.12      18.52
C       8.48      18.61      18.52
C       8.48       6.12       7.23
C       2.75      13.57      25.75
C      14.21      11.16       0.00
C       2.75      11.16       0.00
C      14.21      13.57      25.75
C       2.75       1.21      12.87
C      14.21      23.52      12.87
C       2.75      23.52      12.87
C      14.21       1.21      12.87
N       4.84      12.37      25.75
N      12.11      12.37      25.75
N       4.84      24.73      12.87
N      12.11      24.73      12.87
Cl       4.97      15.03      25.75
Cl      11.98       9.70       0.00
Cl       4.97       9.70       0.00
Cl      11.98      15.03      25.75
Cl       4.97       2.67      12.87
Cl      11.99      22.07      12.87
Cl       4.97      22.07      12.87
Cl      11.99       2.67      12.87
O       7.34      13.77      24.28
O       9.61      10.96       1.47
O       7.34      10.96       1.47
O       9.61      13.77      24.28
O       9.61      13.77       1.47
O       7.34      10.96      24.28
O       9.61      10.96      24.28
O       7.34      13.77       1.47
O       7.34       1.42      11.43
O       9.61      23.31      14.32
O       7.34      23.31      14.32
O       9.61       1.42      11.43
O       9.61       1.42      14.32
O       7.34      23.31      11.43
O       9.61      23.31      11.43
O       7.34       1.42      14.32
O       6.11       7.89      20.47
O      10.85      16.85       5.28
O       6.11      16.85       5.28
O      10.85       7.89      20.47
O      10.85       7.89       5.28
O       6.11      16.85      20.47
O      10.85      16.85      20.47
O       6.11       7.89       5.28
O       6.11      19.63       8.20
O      10.85       5.10      17.55
O       6.11       5.10      17.55
O      10.85      19.63       8.20
O      10.85      19.63      17.55
O       6.11       5.10       8.20
O      10.85       5.10       8.20
O       6.11      19.63      17.55
O       2.08      14.74      25.75
O      14.88       9.99       0.00
O       2.08       9.99       0.00
O      14.88      14.74      25.75
O       2.07       2.37      12.87
O      14.88      22.36      12.87
O       2.07      22.36      12.87
O      14.88       2.37      12.87
