114

Al       6.18       4.10      12.99
Al      10.75      12.12      13.43
Al      13.76      12.08      13.44
Al      12.36       1.82       0.52
Al      10.75       4.56       0.11
Al      13.76       4.67       0.10
H       4.92       5.36      21.42
H      10.61       6.54       6.06
H      13.75       9.37       5.20
H      13.79      10.06       7.59
H       7.60       6.02      18.67
H       7.80       6.76      21.05
H      11.10       4.04      21.59
H      13.27       5.37      18.46
H      10.63       7.24       8.45
H      13.08       6.14      20.82
H       5.11       4.58      19.06
H       6.62      13.93      20.39
H       5.44      12.67      20.82
H       6.55      12.44      19.45
H      16.66      13.01      18.57
H      11.69       3.45      18.16
H       5.93       6.38      13.42
H       5.87      10.34       0.09
C       4.12       2.88      11.18
C      13.07       8.91       5.92
C      13.09       9.29       7.25
C      12.21       8.69       8.18
C      12.18       7.91       5.47
C      12.17       7.50       4.12
C      12.22       9.11       9.53
C      12.16       7.11       2.96
C       9.72       2.93       3.64
C       9.51       2.94       4.85
C       9.31       2.95       6.17
C      12.21      10.23      11.92
C       9.17       2.95       7.40
C       9.00       2.94       8.73
C       8.81       2.91       9.94
C       2.68       3.00       3.53
C       2.89       2.96       4.74
C       3.09       2.93       6.06
C       3.24       2.90       7.29
C       3.44       2.89       8.61
C       3.64       2.89       9.82
C      12.28      10.47      23.35
C       8.34       2.85      11.29
C      12.27      10.52      22.13
C      12.26      10.54      20.78
C      12.26      10.53      19.55
C      12.26      10.56      18.21
C      12.26      10.62      16.98
C       8.81       3.85      16.31
C       8.36       5.60      19.32
C       8.47       6.01      20.64
C      10.34       4.46      20.93
C      10.25       4.04      19.61
C       3.90       3.50      14.93
C       9.23       4.62      18.80
C       9.46       5.44      21.46
C       9.61       5.85      22.81
C       9.05       4.20      17.46
C       9.77       6.20      23.96
C       3.36       4.00      16.17
C       1.78       5.37      19.11
C       1.68       5.80      20.43
C       4.05       5.36      20.76
C       4.15       4.93      19.45
C      12.27      10.93      15.57
C       3.02       4.91      18.61
C       2.81       5.80      21.28
C       2.68       6.19      22.63
C       3.16       4.43      17.29
C       2.52       6.49      23.80
C      10.23       2.95       2.30
C      12.16       6.41       1.71
C       2.17       3.08       2.19
C      10.21       6.67      25.25
C      12.32      10.15      24.75
C       8.28       3.44      15.05
C       2.08       6.81      25.13
C      12.22       9.50      10.69
C      11.31       7.70       7.74
C      11.30       7.31       6.40
C      17.29      13.80      19.02
C       5.94      13.18      19.98
O       7.63       3.81      11.70
O      11.14      11.09      15.01
O      13.41      11.08      15.03
O       8.70       2.32      14.55
O       6.14       2.21      13.29
O       1.46       2.13       1.79
O      11.15       2.12       2.05
O       9.75       3.84       1.50
O      11.02       6.02       1.27
O      13.29       6.17       1.16
O       2.44       4.17       1.54
O       4.96       3.77      11.48
O       1.26       6.01      25.66
O      10.94       5.91      25.93
O       9.85       7.87      25.57
O      11.20       9.98      25.34
O      13.48       9.98      25.27
O       2.51       7.91      25.65
O      12.29       3.71       0.23
O       3.68       1.94      11.95
O      11.07      10.58      12.40
O      13.35      10.55      12.42
O      14.76      12.58      11.95
O       7.40       4.20      14.54
O       4.70       4.25      14.31
O       9.68      13.10      14.58
O       6.23       5.82      12.70
O       6.20      10.90       0.81
