212

Zn      -1.26       6.05       4.35
Zn       4.14       6.92       6.59
Zn       6.65       6.34      17.52
Zn       1.26       5.48      15.28
H       0.01       5.60       1.44
H       5.40       7.38       9.50
H       5.38       6.79      20.43
H      -0.01       5.02      12.37
H       1.64       4.82       5.26
H       7.03       8.15       5.67
H       3.76       7.58      16.61
H      -1.64       4.24      16.20
H       3.56       4.27       3.37
H      -1.83       8.71       7.56
H       1.83       8.13      18.50
H       7.23       3.69      14.31
H       4.50       4.05       1.50
H      -0.89       8.93       9.44
H       0.89       8.35      20.37
H       6.29       3.47      12.43
H       5.51       2.83      21.09
H       0.11       8.99      11.72
H      -0.11       9.57       0.78
H       5.28       3.41      10.15
H       4.17       3.63      19.13
H      -1.23       8.19      13.67
H       1.23       8.77       2.74
H       6.62       4.21       8.20
H       2.95       4.20      17.60
H      -2.45       7.62      15.21
H       2.45       8.20       4.28
H       7.84       4.78       6.66
H      -0.09       5.27      20.38
H       5.30       6.55      12.42
H       5.49       7.13       1.49
H       0.09       5.85       9.45
H      -0.83       6.08      17.82
H       4.56       5.74      14.98
H       6.23       6.32       4.05
H       0.83       6.66       6.89
H       0.82      10.74       4.40
H       6.21       2.24       6.54
H       4.57       1.66      17.47
H      -0.82      10.16      15.33
H       0.71      13.03       3.44
H       6.10      -0.05       7.49
H       4.68      -0.63      18.43
H      -0.70      12.45      14.38
H      -3.11      12.08       1.68
H       2.28       0.89       9.25
H       8.50       0.31      20.19
H       3.12      11.50      12.62
H      -2.98       9.77       2.66
H       2.41       3.20       8.28
H       8.37       2.62      19.21
H       2.99       9.20      13.59
H       5.91       1.09       0.16
H       0.52      11.89      10.78
H      -0.52      11.31      21.72
H       4.88       0.51      11.09
H       7.57       2.94       0.53
H       2.18      10.03      10.40
H      -2.18       9.45      21.34
H       3.22       2.37      11.47
H       6.02       3.54       4.49
H       0.63       9.44       6.44
H      -0.63       8.86      17.38
H       4.76       2.96      15.43
H       4.33       1.72       4.11
H      -1.06      11.26       6.82
H       1.06      10.68      17.76
H       6.45       1.14      15.05
C       0.71       5.35       2.22
C       6.10       7.63       8.71
C       4.69       7.05      19.65
C      -0.71       4.77      13.16
C       1.58       4.90       4.18
C       6.97       8.07       6.75
C       3.81       7.49      17.69
C      -1.58       4.33      15.12
C       2.55       4.63       3.25
C      -2.85       8.35       7.68
C       2.85       7.77      18.62
C       8.24       4.05      14.19
C       2.62       4.84       0.75
C      -2.77       8.13      10.19
C       2.77       7.55      21.12
C       8.17       4.26      11.68
C       3.93       4.38       0.63
C      -1.46       8.60      10.30
C       1.46       8.02      21.24
C       6.86       3.80      11.57
C       4.49       3.19      21.23
C      -0.91       8.63      11.58
C       0.91       9.21       0.64
C       6.30       3.77      10.29
C       3.74       3.62      20.14
C      -1.65       8.20      12.67
C       1.65       8.78       1.74
C       7.04       4.20       9.20
C       2.45       4.07      20.38
C      -2.95       7.75      12.42
C       2.95       8.33       1.49
C       8.34       4.65       9.45
C       2.01       4.58      17.99
C       7.40       7.24      14.81
C       3.38       7.81       3.88
C      -2.01       5.16       7.06
C       0.40       5.17      19.43
C       5.80       6.64      13.38
C       4.99       7.23       2.44
C      -0.41       5.75       8.49
C       0.05       5.55      18.16
C       5.45       6.27      14.65
C       5.34       6.85       3.71
C      -0.05       6.13       7.23
C      -0.90       8.70       4.08
C       4.49       4.27       6.86
C       6.29       3.69      17.79
C       0.90       8.13      15.01
C      -1.07      10.11       3.59
C       4.32       2.87       7.34
C       6.46       2.29      18.28
C       1.07       9.53      14.53
C      -0.04      11.04       3.81
C       5.34       1.94       7.12
C       5.44       1.36      18.06
C       0.05      10.46      14.75
C      -0.10      12.32       3.28
C       5.29       0.65       7.66
C       5.49       0.08      18.59
C       0.11      11.74      14.21
C      -1.21      12.68       2.50
C       4.18       0.30       8.44
C       6.60      -0.28      19.37
C       1.22      12.10      13.43
C      -2.26      11.78       2.29
C       3.13       1.20       8.65
C       7.65       0.62      19.58
C       2.27      11.20      13.22
C      -2.18      10.50       2.83
C       3.20       2.48       8.10
C       7.58       1.90      19.04
C       2.19       9.92      13.77
C       5.04       1.31       2.11
C      -0.35      11.66       8.82
C       0.35      11.08      19.76
C       5.75       0.73      13.05
C       5.95       1.63       1.10
C       0.55      11.34       9.84
C      -0.55      10.77      20.77
C       4.84       1.05      12.03
C       6.87       2.65       1.31
C       1.47      10.32       9.62
C      -1.48       9.74      20.56
C       3.92       2.08      12.25
C       6.91       3.34       2.53
C       1.51       9.64       8.40
C      -1.51       9.06      19.34
C       3.88       2.76      13.47
C       6.00       3.00       3.55
C       0.60       9.98       7.39
C      -0.60       9.40      18.33
C       4.79       2.42      14.48
C       5.05       1.99       3.34
C      -0.34      10.99       7.60
C       0.34      10.41      18.54
C       5.73       1.41      14.27
C       7.92       4.43       2.75
C       2.52       8.54       8.19
C      -2.53       7.97      19.12
C       2.87       3.85      13.68
N       0.44       5.35       3.52
N       5.84       7.62       7.41
N       4.95       7.05      18.35
N      -0.44       4.77      14.46
N       1.99       4.92       2.01
N       7.38       8.06       8.92
N       3.41       7.48      19.86
N      -1.99       4.34      12.95
N       1.88       4.11      21.59
N       7.28       7.71      11.22
N       3.51       8.29       0.28
N      -1.88       4.69      10.65
N       1.65       4.56      19.31
N       7.04       7.26      13.49
N       3.74       7.84       2.56
N      -1.65       5.14       8.38
N       1.06       5.17      17.28
N       6.45       6.65      15.52
N       4.33       7.22       4.59
N      -1.06       5.75       6.35
O       0.20       8.35       4.59
O       5.59       4.63       6.34
O       5.19       4.05      17.28
O      -0.19       7.77      15.53
O      -1.89       7.89       3.89
O       3.50       5.09       7.05
O       7.28       4.51      17.98
O       1.89       7.31      14.83
O       4.07       0.34       1.86
O      -1.32      12.64       9.08
O       1.32      12.06      20.01
O       6.71      -0.24      12.79
O       8.02       4.84       3.98
O       2.63       8.14       6.95
O      -2.63       7.56      17.89
O       2.76       4.26      14.92
O       8.58       4.87       1.78
O       3.18       8.10       9.15
O      -3.19       7.52      20.09
O       2.21       4.30      12.72
