170

Zn      12.67      14.71       8.67
Zn      18.52      -4.96       9.18
Zn      -3.14      -6.35      11.39
Zn      -1.95      -5.23       8.70
Zn      -3.16      13.03       0.79
Zn      12.69      -0.62      17.06
Zn      -1.98      10.11       0.30
Zn      18.55      10.39       0.81
C      10.08      15.52       7.78
C      -5.44      -4.68      12.06
C      13.05      13.35      11.18
C      -0.56      -5.16      11.18
C      14.96      15.04       6.90
C      -3.52      -2.99       7.79
C      13.05       2.20      17.26
C      14.96      -2.32      16.39
C      -0.56      12.20       1.69
C      -3.52       8.16       1.70
C      -5.44      12.68       2.58
C      10.09      -1.84      17.27
C      15.79      14.44       5.79
C      -6.26      13.29       3.69
C      -6.70      15.09       5.27
C      16.26      12.61       4.25
C      -5.98      14.56       4.21
C      15.47      13.19       5.23
C      -6.27      -4.07      13.17
C      15.79      -2.93      15.27
C      -5.94      -4.27      14.52
C      15.50      -2.68      13.93
C      -6.74      -3.76      15.54
C      16.22      -3.28      12.90
C      13.05       3.52      16.54
C      -9.76       4.58      17.00
C      -9.77       5.81      16.34
C      13.05       6.00      15.19
C      12.24       4.93      14.73
C      12.23       3.71      15.41
C      13.05       7.24      14.51
C      13.05       8.31      13.93
C     -10.57       9.55      13.25
C     -10.92      10.74      13.93
C     -10.92      11.97      13.26
C      13.05      12.03      11.90
C      13.40      10.85      11.21
C      13.39       9.62      11.88
C      -3.52       6.84       2.42
C      18.94       6.04       2.42
C      18.93       4.82       3.11
C      -3.52       4.36       3.78
C      -2.36       5.17       3.75
C      -2.36       6.40       3.09
C      -3.52       3.12       4.45
C      -3.52       2.05       5.04
C      -3.52       0.81       5.71
C      19.16       0.56       6.75
C      19.17      -0.67       7.43
C      -3.52      -1.67       7.07
C      -2.60      -1.43       6.03
C      -2.59      -0.20       5.37
C       0.70      12.59       2.42
C       0.65      13.54       3.45
C       1.83      13.92       4.12
C       3.07      13.33       3.77
C       3.10      12.37       2.73
C       1.93      12.01       2.06
C       4.25      13.70       4.45
C       5.27      14.02       5.03
C       6.45      14.39       5.71
C       6.88      15.74       5.73
C       8.06      16.10       6.39
C       8.82      15.13       7.06
C       8.40      13.79       7.06
C       7.23      13.42       6.38
C       8.83      -2.23      16.55
C       8.87      -2.59      15.19
C       7.70      -2.95      14.51
C       6.46      -2.97      15.19
C       6.42      -2.62      16.57
C       7.59      -2.24      17.23
C       5.27      -3.34      14.52
C       4.25      -3.66      13.93
C       3.07      -4.03      13.26
C       2.65      -3.32      12.11
C       1.47      -3.68      11.45
C       0.70      -4.77      11.90
C       1.12      -5.49      13.04
C       2.29      -5.12      13.72
Br      -8.59       4.31      18.47
Br      11.06       2.33      14.84
Br      11.19       5.21      13.19
Br      -8.71       7.25      16.94
Br     -11.36      10.62      15.76
Br      13.84       8.01      11.00
Br      13.95      10.92       9.40
Br      -4.43      -9.01      14.18
Br      17.41       6.57       1.45
Br      -0.83       7.52       3.17
Br      -0.82       4.54       4.64
Br      17.40       3.73       3.16
Br      17.93       1.92       7.18
Br      -1.36       0.17       3.99
Br      -1.40      -2.79       5.48
Br      17.97      -0.94       8.86
Br      -1.00      14.29       4.00
Br       2.03      10.78       0.62
Br       4.77      11.60       2.30
Br       1.81      15.21       5.50
Br       5.81      17.02       4.84
Br       6.65      11.62       6.32
Br       9.37      12.49       8.03
Br       8.66      17.90       6.31
Br      10.53      -2.65      14.27
Br      14.55      10.48       0.08
Br       4.75      -2.67      17.45
Br       7.71      -3.41      12.68
Br       3.71      -1.88      11.51
Br       2.87      -6.04      15.25
Br       0.15      -7.02      13.60
Br       0.86      -2.64       9.98
N      -6.22      16.37       5.86
N      15.93      11.22       3.83
N      -4.89      15.39       3.62
N      14.24      12.46       5.65
N      -4.72      -5.02      14.91
N      14.42      -1.73      13.54
N      -6.41      -4.16      16.94
N      15.75      -3.09      11.51
O      13.05      16.45       9.48
O      11.15      14.93       7.43
O      18.10      -4.11      10.93
O      -9.86      14.28      11.68
O       9.97      16.42       8.69
O      12.34      13.43      10.12
O      -4.76      -5.70      12.37
O      -1.63      -5.19      11.87
O      -8.57      16.30       7.03
O      -0.45      -5.44       9.94
O      14.28      14.23       7.59
O      18.99      -3.63       7.81
O      -2.43      -3.35       8.32
O      13.04      -0.91      18.96
O     -10.87       2.22      18.50
O      13.78      -1.97      16.07
O      -0.85      10.96       1.67
O      13.34       1.17      16.58
O      -1.24      13.14       1.16
O      -8.08      -2.22      17.51
O      -2.64       8.32       0.80
O      17.61      11.78       1.89
O      19.21       9.01       2.05
O      -4.26      13.13       2.45
O      10.76      -0.88      16.77
O      10.37      -2.49      18.33
O      -5.72      16.30       6.98
O      -6.34      17.37       5.15
O      16.72      10.34       4.18
O      14.88      11.08       3.21
O      -5.11      15.85       2.50
O      -3.91      15.58       4.34
O      13.17      12.95       5.30
O      14.42      11.41       6.28
O      -3.65      -4.46      14.69
O      -4.90      -6.12      15.45
O      14.63      -0.54      13.76
O      13.43      -2.23      12.99
O      -7.19      -4.93      17.49
O      -5.35      -3.71      17.39
O      15.25      -4.07      10.96
O      15.86      -1.94      11.05
