113

Eu       5.32       2.54       8.04
Eu       1.78      16.11       7.95
H       5.33       7.16       1.70
H       8.87      11.49      14.29
H       4.86       8.39       0.48
H       8.41      10.26      15.52
H       1.22       7.69       1.71
H       4.76      10.96      14.28
H       1.32       9.09       2.84
H       4.86       9.56      13.16
H       4.78      10.13       2.07
H       8.32       8.53      13.92
H       5.20       8.96       3.37
H       8.75       9.69      12.62
H       0.54      10.78       1.18
H       4.08       7.87      14.81
H       0.88       9.39       0.10
H       4.42       9.27      15.89
H       3.71      10.42       4.04
H       7.25       8.23      11.95
H       2.50      12.02       5.50
H       6.04       6.64      10.49
H       6.07      14.37       5.94
H       2.53       4.28      10.05
H       7.31      12.78       4.48
H       3.77       5.87      11.52
H       8.13      14.91      13.77
H       4.59       3.75       2.22
H       8.78      15.73      11.50
H       5.24       2.93       4.49
H       5.75      16.20      12.83
H       2.21       2.45       3.16
H       5.13      15.41      15.10
H       1.58       3.25       0.90
H       2.83       7.23       3.06
H       6.37      11.43      12.93
H       4.29       5.80       4.46
H       7.84      12.85      11.53
H       8.03       4.78       6.95
H       4.49      13.88       9.04
H       6.53       6.15       5.54
H       2.99      12.51      10.45
C       6.56       8.96       1.68
C      10.10       9.70      14.31
C       5.72       7.90       0.97
C       9.26      10.76      15.02
C       0.65       8.32       2.42
C       4.19      10.34      13.57
C       5.61       9.68       2.64
C       9.15       8.97      13.35
C       7.18       9.92       0.66
C       3.64       8.73      15.33
C       5.59      11.52       4.15
C       9.13       7.13      11.85
C       4.23      11.29       4.44
C       7.78       7.36      11.56
C       3.55      12.18       5.26
C       7.09       6.48      10.73
C       4.20      13.30       5.79
C       7.74       5.36      10.20
C       5.56      13.51       5.52
C       9.10       5.14      10.48
C       6.26      12.63       4.70
C       2.71       6.03      11.29
C      10.13      15.08      14.56
C       6.59       3.58       1.43
C       9.15      15.21      13.56
C       5.61       3.45       2.44
C       9.52      15.67      12.30
C       5.98       2.98       3.69
C       3.77      16.01      12.02
C       7.31       2.64       3.97
C       4.72      15.92      13.05
C       1.18       2.74       2.95
C       4.37      15.46      14.31
C       0.83       3.20       1.68
C       4.22      16.39      10.67
C       7.77       2.26       5.32
C       1.04       6.78       4.22
C       4.58      11.87      11.78
C       2.41       6.70       3.91
C       5.95      11.96      12.08
C       3.23       5.90       4.70
C       6.78      12.76      11.29
C       2.72       5.20       5.80
C       6.26      13.46      10.20
C       1.35       5.31       6.10
C       4.89      13.34       9.89
C       7.59       6.09       5.32
C       4.05      12.57      10.68
C       3.60       4.32       6.59
C       7.15      14.33       9.41
C       3.42      14.23       6.63
C       6.96       4.43       9.36
O       3.40      16.43       9.67
O       6.94       2.22       6.32
O       5.45      16.66      10.47
O       1.90       1.99       5.52
O       2.21      13.99       6.91
O       5.75       4.67       9.09
O       3.98      15.32       7.09
O       7.52       3.34       8.91
O       3.11       3.60       7.55
O       6.65      15.05       8.44
O       4.84       4.24       6.33
O       8.38      14.42       9.66
O       6.33      10.71       3.33
O       9.87       7.94      12.67
O       7.22       7.51       3.49
O       3.68      11.14      12.51
O       9.70      14.55      15.75
O       6.16       4.11       0.24
O       6.52       7.23       0.00
