252

Gd      22.95       9.49      26.08
Gd      11.57       2.52      14.89
Gd       5.14       7.73       1.23
Gd      16.51      14.70      12.42
H      21.54       7.61      21.75
H      13.89       2.92      19.22
H       6.55       9.61       5.57
H      14.19      14.30       8.09
H      19.99       6.32      20.22
H      15.74       3.72      20.75
H       8.10      10.90       7.09
H      12.34      13.50       6.57
H      17.99       4.69      23.66
H      18.10       4.75      17.31
H      10.09      12.53       3.65
H       9.98      12.47      10.00
H      19.55       5.98      25.18
H      16.24       3.95      15.79
H       8.53      11.24       2.13
H      11.84      13.27      11.52
H      16.07       4.76       2.26
H      14.19       3.61      11.40
H      12.01      12.45      25.06
H      13.89      13.61      15.92
H      14.87       3.96       4.33
H      15.46       4.32       9.33
H      13.22      13.26      22.99
H      12.63      12.90      17.98
H      17.67       6.10       6.78
H      12.28       2.79       6.88
H      10.41      11.12      20.54
H      15.81      14.43      20.44
H      18.86       6.91       4.69
H      11.01       2.10       8.96
H       9.22      10.30      22.62
H      17.08      15.12      18.35
H      19.18      12.10       1.53
H       6.24       4.16      12.13
H       8.90       5.12      25.78
H      21.84      13.05      15.19
H      17.52      13.98       1.24
H       5.32       6.50      12.42
H      10.56       3.24      26.07
H      22.76      10.72      14.90
H      19.74      14.28      26.22
H       8.76       7.55      14.76
H       8.34       2.94       1.10
H      19.32       9.67      12.56
H      21.42      12.41      26.47
H       9.66       5.20      14.50
H       6.66       4.81       0.84
H      18.42      12.02      12.81
H      19.79      12.82      24.24
H      10.04       6.85      16.73
H       8.30       4.40       3.07
H      18.05      10.37      10.59
H      19.62      12.60      22.47
H      10.31       6.89      18.50
H       8.46       4.62       4.85
H      17.77      10.33       8.81
H      21.07      13.45      23.15
H       8.90       5.99      17.82
H       7.01       3.77       4.16
H      19.19      11.23       9.49
H      22.59      12.00      21.78
H       9.50       3.97      19.20
H       5.49       5.22       5.54
H      18.58      13.24       8.12
H      21.27      10.96      21.08
H      11.02       4.68      19.90
H       6.81       6.25       6.24
H      17.06      12.54       7.42
H      22.68      10.20      21.90
H      11.07       3.08      19.07
H       5.41       7.02       5.41
H      17.02      14.14       8.25
H      17.94      10.34      25.82
H      13.09       7.37      15.15
H      10.15       6.87       1.50
H      15.00       9.85      12.16
H      17.38       8.82      26.62
H      14.70       7.17      14.35
H      10.70       8.40       0.69
H      13.38      10.05      12.97
H      18.56       8.74      25.27
H      14.23       6.09      15.70
H       9.53       8.48       2.05
H      13.85      11.13      11.61
H      14.93       7.81       1.93
H      11.99       6.01      11.72
H      13.15       9.41      25.38
H      16.09      11.21      15.59
H      13.31       7.10       1.64
H      13.36       7.13      12.02
H      14.77      10.12      25.67
H      14.72      10.09      15.30
H      13.85       8.56       0.70
H      11.81       7.31      12.95
H      14.23       8.66      26.61
H      16.27       9.91      14.36
C      21.46       7.73      24.44
C      13.82       3.04      16.54
C       6.62       9.49       2.88
C      14.26      14.17      10.78
C      20.61       6.88      23.54
C      14.96       3.42      17.43
C       7.47      10.34       3.77
C      13.12      13.80       9.89
C      20.75       6.96      22.15
C      14.82       3.33      18.82
C       7.33      10.25       5.17
C      13.26      13.89       8.49
C      19.91       6.25      21.31
C      15.84       3.76      19.66
C       8.17      10.96       6.01
C      12.25      13.46       7.65
C      18.90       5.44      21.87
C      17.02       4.29      19.10
C       9.18      11.78       5.45
C      11.07      12.93       8.21
C      18.78       5.33      23.26
C      17.17       4.35      17.71
C       9.31      11.89       4.05
C      10.91      12.87       9.61
C      19.63       6.05      24.10
C      16.15       3.91      16.88
C       8.45      11.17       3.22
C      11.93      13.31      10.44
C      18.24       6.39       2.15
C      11.76       2.41      11.51
C       9.84      10.83      25.17
C      16.33      14.80      15.80
C      17.52       5.90       3.37
C      12.52       2.84      10.29
C      10.56      11.32      23.94
C      15.56      14.38      17.03
C      16.40       5.06       3.26
C      13.78       3.46      10.40
C      11.69      12.16      24.06
C      14.30      13.76      16.91
C      15.74       4.61       4.39
C      14.48       3.84       9.26
C      12.35      12.61      22.92
C      13.61      13.38      18.05
C      16.20       5.00       5.67
C      13.92       3.61       7.99
C      11.89      12.22      21.65
C      14.16      13.61      19.32
C      17.33       5.82       5.78
C      12.67       2.97       7.88
C      10.75      11.39      21.54
C      15.41      14.25      19.44
C      17.99       6.27       4.64
C      11.98       2.59       9.02
C      10.10      10.95      22.68
C      16.11      14.63      18.30
C      19.05       9.62       0.51
C       8.51       3.16      13.14
C       9.03       7.59      26.80
C      19.58      14.06      14.17
C      18.04      10.71       0.35
C       7.99       4.55      13.31
C      10.04       6.50      26.96
C      20.09      12.67      14.01
C      18.27      11.97       0.95
C       6.77       4.92      12.71
C       9.81       5.25      26.36
C      21.31      12.30      14.61
C      17.36      13.00       0.80
C       6.27       6.20      12.86
C      10.73       4.22      26.52
C      21.81      11.02      14.45
C      16.19      12.78       0.04
C       6.99       7.14      13.62
C      11.90       4.44      27.28
C      21.09      10.08      13.70
C      20.66      14.41      26.78
C       8.22       6.78      14.19
C       7.42       2.81       0.53
C      19.86      10.43      13.12
C      21.59      13.39      26.93
C       8.72       5.49      14.05
C       6.49       3.83       0.39
C      19.37      11.72      13.27
C      20.33      12.66      23.31
C       9.94       6.28      17.67
C       7.75       4.56       4.01
C      18.14      10.93       9.65
C      22.01      11.07      21.88
C      10.59       4.06      19.09
C       6.07       6.15       5.44
C      17.49      13.15       8.22
C      18.22       9.33      26.13
C      13.86       6.66      14.84
C       9.87       7.89       1.19
C      14.22      10.56      12.47
C      14.16       7.62       1.18
C      12.51       6.61      12.48
C      13.92       9.60      26.14
C      15.57      10.61      14.84
S      21.16      11.06      23.47
S      10.98       4.82      17.50
S       6.92       6.16       3.84
S      17.10      12.40       9.81
S      19.62       9.42      27.26
S      13.14       5.45      13.71
S       8.46       7.80       0.05
S      14.94      11.77      13.60
N      17.92       4.76      21.11
N      18.07       4.85      19.86
N      10.16      12.46       6.20
N      10.02      12.37       7.46
N      15.60       4.63       6.89
N      14.52       3.97       6.77
N      12.48      12.59      20.43
N      13.56      13.25      20.54
N      19.91      16.64      27.11
N       6.58       8.47      13.87
N       8.18       0.58       0.21
N      21.50       8.75      13.45
O      22.35       8.49      23.91
O      12.74       2.60      17.06
O       5.74       8.73       3.40
O      15.35      14.62      10.26
O      21.25       7.71      25.69
O      13.93       3.23      15.28
O       6.84       9.51       1.62
O      14.15      13.99      12.04
O      17.76       6.07       1.01
O      12.27       2.70      12.64
O      10.33      11.15      26.30
O      15.82      14.52      14.67
O      19.28       7.09       2.35
O      10.66       1.81      11.31
O       8.81      10.12      24.97
O      17.42      15.41      16.01
O      23.59      11.41      27.21
O       9.57       2.81      13.76
O       4.49       5.81       0.10
O      18.51      14.41      13.55
O      20.06       9.82       1.26
O       7.88       2.35      12.40
O       8.03       7.40      26.05
O      20.21      14.87      14.92
O      22.25      11.30      24.50
O      10.28       3.96      16.47
O       5.84       5.92       2.81
O      17.80      13.26      10.85
O      20.62      10.31      26.54
O      11.90       4.96      14.44
O       7.46       6.91       0.78
O      16.19      12.26      12.88
