140

Al       0.01       6.65      11.59
Al       3.32       6.66      11.60
Al       2.85      13.30      23.17
Al       0.56      21.58       0.01
H       0.76       4.01       1.69
H       0.83       8.94      21.77
H       0.28       6.52       5.67
H       1.68       6.54      17.76
H       0.81       5.76       3.47
H       1.21       7.19      20.03
H       4.13       2.40      10.27
H       1.20      11.02      12.74
H       5.03       0.84       6.40
H       0.83      12.40      16.76
H       5.97       6.15       7.91
H       1.98       7.10      15.38
H       3.42      18.03       1.90
H      -0.30      -4.76      21.18
H       3.38      15.99       3.36
H      -0.28      -2.70      19.77
H       0.79      16.81       4.60
H       3.78      -3.55      18.60
H       0.84      18.82       3.10
H       3.78      -5.56      20.09
H       3.10      11.54       7.04
H      -0.34       1.85      16.17
H       2.97       9.60       8.63
H      -0.40       3.77      14.55
H       0.45      10.23       9.73
H       3.72       3.08      13.56
H       0.56      12.22       8.21
H       3.77       1.10      15.10
H       1.68       6.25       9.90
H       4.99       7.05      13.30
H       2.79       0.13       1.77
H       4.54      13.68      21.47
C       1.64       4.75      13.10
C       5.00       8.57      10.10
C       1.68       8.41      13.27
C       4.96       4.92       9.90
C       0.33       4.80       3.65
C       1.23       8.24      19.76
C       6.20       2.65       2.87
C       1.18      10.57      20.39
C       4.50       2.59       9.26
C       1.29      10.79      13.80
C       4.57       1.55       8.33
C       1.04      11.80      14.75
C       4.98       1.73       7.03
C       1.10      11.57      16.11
C       5.36       3.02       6.58
C       1.44      10.29      16.60
C       5.41       4.08       7.54
C       1.64       9.23      15.65
C       5.76       3.30       5.21
C       1.47       9.97      18.02
C      -0.23       4.55       4.92
C       1.44       8.59      18.41
C      -0.18       5.56       5.93
C       1.65       7.58      17.43
C       5.94       5.35       7.17
C       1.80       7.89      16.11
C       5.61       2.42       4.10
C       1.44      10.92      19.07
C       0.29       3.85       2.65
C       1.04       9.21      20.73
C       4.95       3.84       8.87
C       1.58       9.52      14.26
C       4.29      17.74       2.49
C       0.60      -4.48      20.63
C       4.26      16.62       3.30
C       0.60      -3.33      19.84
C       5.40      16.28       4.06
C       1.76      -2.98      19.12
C      -0.07      17.08       4.00
C       2.90      -3.80      19.19
C      -0.05      18.19       3.16
C       2.90      -4.92      20.01
C       5.45      18.53       2.40
C       1.75      -5.26      20.74
C       5.26      13.07       6.53
C       1.78       0.27      16.72
C       5.38      15.08       4.91
C       1.79      -1.76      18.30
C       3.96      11.26       7.64
C       0.54       2.11      15.58
C       3.89      10.18       8.52
C       0.51       3.18      14.69
C       5.02       9.79       9.25
C       1.66       3.55      13.98
C      -0.42      10.54       9.14
C       2.84       2.79      14.13
C      -0.36      11.64       8.30
C       2.86       1.70      14.98
C       5.15      11.98       7.52
C       1.72       1.37      15.74
C       1.14      11.60      21.48
C       6.14       1.66       1.74
C       1.78      -6.44      21.65
C       5.47      19.72       1.50
N      -0.15      14.79       5.65
N       2.92      -1.49      17.61
N      -0.21      13.77       6.47
N       2.91      -0.45      16.80
N       4.24      13.23       5.65
N       0.73       0.13      17.57
N       4.31      14.25       4.82
N       0.74      -0.91      18.37
N       4.76       1.21       4.19
N       1.80      12.33      18.83
N       4.20       0.18       8.78
N       0.62      13.13      14.26
O       2.82       8.05      12.86
O      -0.54       5.40      10.23
O       0.50       5.17      12.72
O       3.87       8.04      10.36
O       0.56       7.91      12.92
O       3.83       5.27      10.36
O      -0.49       8.13      10.48
O       2.77       5.29      12.83
O       1.67       6.68      10.78
O       4.98       6.63      12.42
O       0.67      -7.00      21.92
O       4.35      20.07       0.99
O       2.25      12.15      21.75
O       0.64       1.41       1.21
O       2.92      -6.80      22.09
O      -0.05      20.30       1.30
O       5.01       1.18       1.42
O       0.02      11.82      22.03
O       2.78      -0.04       0.81
O       4.51      13.34      22.37
O       5.33       0.11       4.14
O       3.54       1.39       4.28
O       2.91      12.55      18.33
O       0.98      13.19      19.19
O       3.80       0.06       9.94
O       4.33      -0.74       7.96
O       0.57      13.29      13.04
O       0.33      13.98      15.11
