164

Zn       1.11      11.14       0.25
Zn       6.90       0.90      15.43
Zn       1.11       6.48      15.65
Zn       6.91       5.55       0.03
H       4.68      10.02      13.39
H      10.47       2.01       2.28
H       6.16      10.27      11.40
H       0.37       1.76       4.27
H       4.43       6.73       9.68
H      10.23       5.31       6.00
H       3.04       6.41      11.74
H       8.83       5.62       3.94
H       9.37       8.91       7.97
H       3.57       3.12       7.71
H       4.43       8.89       7.95
H      10.22       3.14       7.73
H       9.46       7.39       5.82
H       3.67       4.64       9.85
H      10.85       7.60       3.77
H       5.06       4.43      11.91
H       9.05      11.41       2.94
H       3.26       0.62      12.73
H       7.56      11.14       4.93
H       1.77       0.89      10.75
H       9.37      10.44      10.26
H       3.58       1.59       5.42
H      10.77      10.10      12.29
H       4.98       1.93       3.39
H       9.04       6.20      12.85
H       3.25       5.83       2.83
H       7.60       6.55      10.85
H       1.81       5.48       4.83
H       4.42      11.04       6.18
H      10.21       0.99       9.50
H       3.03      11.28       4.11
H       8.82       0.75      11.56
H       4.74       7.65       2.55
H      10.53       4.38      13.13
H       6.18       7.46       4.56
H       0.39       4.57      11.12
H       3.21       4.38      15.43
H       9.00       7.65       0.25
H       3.31       1.89      15.43
H       9.10      10.14       0.25
H      10.57       3.74       0.07
H       4.78       8.29      15.61
H      10.65       6.22       0.06
H       4.86       5.81      15.62
H       3.03       1.90       1.06
H       8.83      10.13      14.61
H       2.90      13.29       1.20
H       8.70      -1.26      14.48
H      10.92      11.34      14.81
H       5.13       0.69       0.87
H      10.85      -0.05      14.61
H       5.06      12.08       1.06
C       2.87       8.05      13.87
C       8.66       3.98       1.80
C       3.77       8.20      12.69
C       9.56       3.83       2.99
C       4.65       9.28      12.59
C      10.45       2.75       3.09
C       5.47       9.43      11.47
C      11.26       2.60       4.21
C       5.39       8.52      10.41
C      11.18       3.51       5.27
C       4.50       7.44      10.51
C      10.29       4.59       5.17
C       3.71       7.26      11.64
C       9.50       4.77       4.03
C       6.19       8.70       9.17
C       0.40       3.33       6.51
C       7.60       8.72       9.18
C       1.81       3.31       6.50
C       8.27       8.91       7.97
C       2.48       3.12       7.71
C       7.61       9.08       6.75
C       1.82       2.95       8.93
C       6.20       9.08       6.74
C       0.40       2.95       8.93
C       5.52       8.89       7.96
C      11.31       3.14       7.72
C       8.42       9.25       5.51
C       2.62       2.78      10.16
C       9.36       8.26       5.18
C       3.57       3.77      10.50
C      10.15       8.38       4.04
C       4.36       3.65      11.64
C      10.04       9.52       3.23
C       4.25       2.51      12.45
C       9.12      10.52       3.57
C       3.33       1.51      12.11
C       8.29      10.37       4.68
C       2.50       1.66      11.00
C       8.39       8.52      10.41
C       2.60       3.51       5.26
C       9.29       9.51      10.83
C       3.50       2.52       4.85
C      10.07       9.33      11.96
C       4.28       2.70       3.71
C       9.99       8.13      12.70
C       4.20       3.90       2.98
C       9.10       7.14      12.29
C       3.31       4.90       3.39
C       8.30       7.33      11.17
C       2.51       4.70       4.51
C       5.40       9.24       5.50
C      11.19       2.79      10.18
C       4.50      10.31       5.37
C      10.29       1.72      10.31
C       3.72      10.44       4.23
C       9.52       1.59      11.45
C       3.80       9.49       3.20
C       9.59       2.54      12.48
C       4.69       8.41       3.33
C      10.48       3.62      12.35
C       5.49       8.30       4.46
C      11.29       3.73      11.22
C       2.30       3.78      15.50
C       8.09       8.25       0.17
C       2.35       2.40      15.52
C       8.14       9.63       0.16
C       1.15       1.67      15.61
C       6.94      10.36       0.07
C      11.53       2.38      15.67
C       5.74       9.65       0.01
C      11.57       3.77      15.67
C       5.77       8.26       0.00
C       1.15       0.20      15.67
C       6.94      11.83       0.01
C       2.20       1.37       0.62
C       7.99      10.66      15.06
C       2.13      -0.01       0.70
C       7.93      12.04      14.98
C       0.12      11.97      15.23
C       5.91       0.06       0.44
C       0.10      -0.54      15.13
C       5.89      12.57       0.55
C       2.91       9.62       2.00
C       8.70       2.41      13.67
C      10.89       7.96      13.88
C       5.10       4.08       1.79
C      10.93       9.66       2.04
C       5.14       2.37      13.64
N       1.14       4.46      15.59
N       6.93       7.57       0.09
N       1.11      13.18       0.18
N       6.90      -1.15      15.50
O       2.29       6.93      14.03
O       8.08       5.10       1.65
O       2.75       9.06      14.64
O       8.54       2.97       1.03
O       2.76       8.59       1.26
O       8.55       3.44      14.42
O       2.36      10.76       1.82
O       8.15       1.27      13.86
O      11.45       9.02      14.32
O       5.66       3.01       1.36
O      11.04       6.79      14.38
O       5.24       5.24       1.30
O      11.50       8.59       1.62
O       5.71       3.44      14.06
O      11.07      10.81       1.52
O       5.28       1.22      14.16
