97

Al       5.29      17.51      10.18
H       4.00      15.44      13.73
H       3.92      13.45      15.17
H       3.18      32.76      17.30
H       2.94      19.44       3.94
H       4.07      19.02       2.29
H       5.36      30.82      20.27
H       4.32      31.28      18.38
H       3.18      15.31       6.66
H       3.14      15.14       4.21
H       3.00      27.26      19.97
H       2.63      22.15      14.90
H       4.58      23.46      15.47
H       4.90      25.48      16.83
H       3.99      26.99      18.15
H       4.17      21.54      10.23
H       4.34      23.76      11.27
H       2.75      27.76      13.90
H       2.34      11.16      11.86
H       4.06       9.88      12.85
H       5.28      31.12      13.93
H       4.05      29.34      14.55
H       5.35      18.82      12.86
H       1.23      14.55       9.93
H       1.88      20.43       7.15
H       5.17      27.08      12.99
H       4.53      10.55      17.08
H       4.23      15.32       0.70
C       3.22      15.71      11.22
C       3.24      19.29      11.25
C       3.24      17.51       8.16
C       3.61      14.50      13.33
C       3.56      13.38      14.14
C       2.43      10.73      15.71
C       2.46       9.46      16.31
C       3.20      18.63       5.89
C       3.03      18.52       4.52
C       3.51      18.29       1.70
C       3.53      18.42       0.32
C       3.17      14.44      12.00
C       3.06      12.16      13.64
C       3.02      10.90      14.43
C       4.22      31.77      15.71
C       4.20      30.46      16.39
C       4.24      30.37      17.79
C       3.14      16.21       6.06
C       3.09      16.11       4.67
C       2.20      16.27       1.57
C       2.24      16.42       0.17
C       2.86      20.77      13.29
C       2.95      22.04      13.86
C       4.17      24.41      15.12
C       4.34      25.55      15.90
C       3.19      17.46       6.68
C       2.96      17.27       3.87
C       2.86      17.23       2.39
C       4.15      29.06      19.92
C       4.16      29.13      18.44
C       4.05      27.97      17.66
C       3.81      21.69      11.25
C       3.90      22.94      11.83
C       3.01      25.68      13.43
C       3.16      26.82      14.24
C       2.73      13.22      11.46
C       2.68      12.10      12.30
C       3.59       9.76      13.83
C       3.61       8.52      14.44
C       3.27      20.60      11.96
C       3.43      23.14      13.15
C       3.53      24.44      13.86
C       3.84      26.79      15.47
C       4.01      28.02      16.26
C       4.09      29.28      15.64
C       2.44      19.66      14.22
C       2.42      12.98      10.01
C       3.61      19.93       6.51
C       2.30      25.86      12.11
C       1.77      11.83      16.49
C       1.51      15.00       2.04
O       4.21      18.12       8.74
O       4.21      15.91      10.43
O       4.21      18.47      11.46
O       2.29      16.91       8.77
O       2.28      19.08      10.44
O       2.28      16.54      11.43
O       1.73      18.62      13.71
O       2.76      19.67      15.39
O       1.73      13.93       9.34
O       2.82      11.98       9.44
O       2.85      20.57       7.38
O       4.74      20.36       6.23
O       5.44      26.85      12.08
O       2.53      25.23      11.10
O       4.86      11.44      17.34
O       2.08      13.01      16.45
O       4.56      14.59       1.25
O       1.85      14.29       2.96
