48

Al       2.93      -2.37       7.24
Al      -2.72       6.17       7.24
H       1.26      -1.35       5.78
H       2.23       4.78       8.30
H      -0.77      -1.21      13.76
H       4.21       4.04       0.92
H       0.24       5.97       3.17
H       0.11       5.38       0.76
H       3.22      -0.64      10.89
H       3.30       0.12      13.25
H       0.19       0.78       7.46
H       3.45       3.00       6.96
H       5.46      -2.21      10.33
H       4.72      -1.99      11.90
H      -1.96       4.98       4.37
H      -1.26       4.26       2.93
C       2.25       5.72       4.84
C       4.62       0.03       7.12
C       1.29      -1.84       9.59
C      -1.03       3.75       7.35
C      -0.96       2.27       7.33
C       4.58       1.51       7.13
C       1.22      -1.37      10.98
C       2.27       5.36       3.42
C       0.04      -1.49      11.78
C       0.11      -1.07      13.13
C       3.43       4.82       2.78
C       3.33       4.48       1.41
C       1.10       5.53       2.66
C       1.02       5.19       1.32
C       2.37      -0.78      11.54
C       2.41      -0.37      12.86
C       1.27      -0.53      13.68
C       2.16       4.65       0.68
N      -1.12      -2.03      11.32
N       4.60       4.58       3.44
O       1.11       5.80       5.42
O      -0.90      -0.54       7.26
O       0.20      -2.23       9.02
O       0.06       4.39       7.51
O       2.43      -1.87       9.01
O      -2.19       4.29       7.21
O       3.38       5.95       5.43
O       3.52      -0.58       6.99
O       1.25      -1.90       6.58
O       2.29       5.66       7.89
O       0.28       1.77       7.52
O       3.34       2.01       6.93
