294

Cd       7.19       0.00      10.97
Cd      -0.00       8.79       8.35
H      13.68       5.40       0.03
H       0.71      12.19       0.03
H       7.90      14.20      19.28
H       6.48       3.39      19.28
H      13.88       7.85       0.29
H       0.50       9.74       0.29
H       7.69      16.65      19.03
H       6.69       0.94      19.03
H      12.95       9.00       2.30
H       1.44       8.58       2.30
H       8.63       0.21      17.02
H       5.75      17.38      17.02
H      11.78       7.69       4.05
H       2.60       9.90       4.05
H       9.79      16.48      15.27
H       4.59       1.11      15.27
H       6.69       1.77      13.63
H       7.69      15.82      13.63
H       0.50      10.57       5.69
H      13.88       7.02       5.69
H      10.22       0.52      11.82
H       4.17      17.07      11.82
H      11.36       9.31       7.50
H       3.03       8.28       7.50
H       7.91       2.57      15.65
H       6.47      15.02      15.65
H      13.66      11.36       3.67
H       0.72       6.23       3.67
H      11.58       1.27      13.73
H       2.80      16.32      13.73
H      10.00      10.07       5.59
H       4.39       7.52       5.59
H      10.02       2.97      16.81
H       4.37      14.61      16.81
H      11.56      11.77       2.50
H       2.83       5.82       2.50
H      12.32       1.27      15.70
H       2.06      16.32      15.70
H       9.25      10.06       3.62
H       5.13       7.52       3.62
H      11.03       5.54       4.92
H       3.35      12.05       4.92
H      10.55      14.33      14.40
H       3.84       3.25      14.40
H      10.52       1.78       4.71
H       3.86      15.81       4.71
H      11.05      10.57      14.61
H       3.33       7.02      14.61
H      10.42       4.32       6.45
H       3.96      13.27       6.45
H      11.15      13.12      12.87
H       3.23       4.47      12.87
H       8.76      16.91       8.22
H       5.62       0.68       8.22
H      12.81       8.11      11.10
H       1.57       9.47      11.10
H       9.77       0.51       6.29
H       4.61      17.08       6.29
H      11.81       9.30      13.03
H       2.58       8.29      13.03
H       8.35       2.84      10.37
H       6.03      14.75      10.37
H      13.23      11.63       8.95
H       1.16       5.96       8.95
H       9.40       4.18       8.55
H       4.99      13.41       8.55
H      12.18      12.97      10.77
H       2.20       4.61      10.77
H      14.33       1.28      16.66
H       0.05      16.31      16.66
H       7.25      10.07       2.66
H       7.14       7.52       2.66
H       2.20       1.11      17.64
H      12.19      16.48      17.64
H       5.00       9.90       1.68
H       9.39       7.69       1.68
H       0.58       3.47       2.41
H      13.80      14.12       2.41
H       6.61      12.26      16.91
H       7.77       5.32      16.91
H       3.77       1.62       0.16
H      10.62      15.96       0.16
H       3.42      10.42      19.16
H      10.96       7.17      19.16
H       2.96       2.83       2.19
H      11.42      14.75       2.19
H       4.23      11.63      17.13
H      10.16       5.96      17.13
H       8.91       2.77      19.26
H       5.47      14.82      19.26
H      12.66      11.57       0.05
H       1.72       6.02       0.05
H      10.08       1.91       1.01
H       4.30      15.68       1.01
H      11.49      10.70      18.31
H       2.89       6.88      18.31
H       9.87       1.39      18.63
H       4.51      16.20      18.63
H      11.71      10.19       0.69
H       2.68       7.40       0.69
H      12.47      17.37       2.97
H       1.92       0.22       2.97
H       9.11       8.58      16.35
H       5.28       9.01      16.35
H      12.95       1.01       4.20
H       1.44      16.57       4.20
H       8.63       9.81      15.12
H       5.75       7.78      15.12
H      13.68       1.04       2.56
H       0.71      16.55       2.56
H       7.90       9.84      16.76
H       6.48       7.75      16.76
C      12.07       5.78       3.06
C       2.31      11.81       3.06
C       9.51      14.58      16.26
C       4.88       3.01      16.26
C      12.62       5.12       1.90
C       1.77      12.46       1.90
C       8.96      13.92      17.42
C       5.42       3.67      17.42
C      13.27       5.90       0.92
C       1.11      11.69       0.92
C       8.30      14.70      18.40
C       6.08       2.89      18.40
C      13.38       7.27       1.06
C       1.00      10.32       1.06
C       8.19      16.07      18.26
C       6.19       1.52      18.26
C      12.84       7.92       2.19
C       1.54       9.66       2.19
C       8.73      16.72      17.13
C       5.65       0.87      17.13
C      12.20       7.19       3.17
C       2.19      10.39       3.17
C       9.38      15.99      16.15
C       5.00       1.60      16.15
C       7.78       1.67      13.70
C       6.61      15.92      13.70
C      13.80      10.47       5.62
C       0.59       7.12       5.62
C       9.74       0.97      12.69
C       4.64      16.61      12.69
C      11.83       9.77       6.63
C       2.55       7.82       6.63
C       8.47       2.12      14.82
C       5.92      15.46      14.82
C      13.11      10.92       4.50
C       1.27       6.67       4.50
C      10.50       1.39      13.77
C       3.89      16.20      13.77
C      11.08      10.19       5.54
C       3.31       7.40       5.54
C       9.86       1.96      14.90
C       4.52      15.63      14.90
C      11.71      10.76       4.42
C       2.67       6.83       4.42
C      10.57       2.34      16.12
C       3.82      15.25      16.12
C      11.01      11.13       3.20
C       3.37       6.45       3.20
C      11.81       1.91      16.43
C       2.57      15.68      16.43
C       9.76      10.70       2.88
C       4.62       6.89       2.88
C      11.31       3.64       3.95
C       3.08      13.95       3.95
C      10.27      12.43      15.37
C       4.11       5.16      15.37
C      11.42       5.02       4.05
C       2.96      12.57       4.05
C      10.15      13.81      15.27
C       4.23       3.77      15.27
C      11.85       3.00       2.79
C       2.54      14.59       2.79
C       9.73      11.79      16.53
C       4.66       5.80      16.53
C      12.48       3.71       1.78
C       1.90      13.88       1.78
C       9.10      12.50      17.54
C       5.29       5.09      17.54
C      10.66       2.82       4.97
C       3.72      14.76       4.97
C      10.91      11.62      14.35
C       3.47       5.97      14.35
C      10.26       3.28       6.18
C       4.12      14.31       6.18
C      11.31      12.07      13.14
C       3.07       5.52      13.14
C       9.66       2.47       7.23
C       4.73      15.12       7.23
C      11.92      11.27      12.08
C       2.47       6.32      12.08
C       8.91       0.40       8.24
C       5.47      17.19       8.24
C      12.67       9.20      11.08
C       1.72       8.39      11.08
C       9.47       1.08       7.17
C       4.91      16.51       7.17
C      12.11       9.87      12.15
C       2.28       7.72      12.15
C       8.69       2.36       9.45
C       5.69      15.22       9.45
C      12.88      11.16       9.87
C       1.50       6.43       9.87
C       9.25       3.11       8.42
C       5.13      14.48       8.42
C      12.33      11.90      10.90
C       2.06       5.69      10.90
C      13.01       3.02       0.57
C       1.38      14.57       0.57
C       8.57      11.81      18.75
C       5.81       5.77      18.75
C      12.15       2.78      18.82
C       2.23      14.81      18.82
C       9.42      11.57       0.50
C       4.96       6.02       0.50
C       0.00       2.66       0.48
C      14.38      14.92       0.48
C       7.19      11.46      18.84
C       7.20       6.13      18.84
C       0.48       2.00      18.62
C      13.91      15.59      18.62
C       6.71      10.79       0.70
C       7.67       6.80       0.70
C      13.95       1.76      17.57
C       0.43      15.83      17.57
C       7.62      10.55       1.75
C       6.76       7.04       1.75
C      12.62       2.15      17.62
C       1.77      15.44      17.62
C       8.96      10.94       1.70
C       5.43       6.64       1.70
C       1.84       1.62      18.54
C      12.54      15.97      18.54
C       5.35      10.41       0.78
C       9.04       7.17       0.78
C       0.93       2.95       1.52
C      13.45      14.64       1.52
C       6.26      11.75      17.80
C       8.12       5.84      17.80
C       2.72       1.91       0.24
C      11.66      15.68       0.24
C       4.47      10.70      19.08
C       9.91       6.89      19.08
C       2.26       2.59       1.40
C      12.12      15.00       1.40
C       4.93      11.38      17.92
C       9.45       6.21      17.92
C       9.88       2.26      19.31
C       4.51      15.33      19.31
C      11.70      11.05       0.01
C       2.68       6.54       0.01
C      12.76       0.83       3.13
C       1.62      16.76       3.13
C       8.81       9.62      16.19
C       5.57       7.97      16.19
N       8.52       1.03       9.37
N       5.86      16.56       9.37
N      13.06       9.83       9.95
N       1.33       7.76       9.95
N       8.40       1.09      12.66
N       5.98      16.50      12.66
N      13.18       9.88       6.66
N       1.21       7.70       6.66
Cl       9.77      15.13      11.04
Cl       4.61       2.46      11.04
Cl      11.80       6.33       8.28
Cl       2.58      11.26       8.28
O      11.67       1.63       2.65
O       2.72      15.96       2.65
O       9.91      10.42      16.67
O       4.47       7.16      16.67
O      10.85       3.23      18.90
O       3.53      14.35      18.90
O      10.72      12.03       0.42
O       3.66       5.56       0.42
O       8.41      15.56      10.62
O       5.97       2.03      10.62
O      13.17       6.76       8.70
O       1.22      10.82       8.70
O      10.76      15.86      10.27
O       3.62       1.73      10.27
O      10.81       7.06       9.05
O       3.57      10.53       9.05
O       9.87      13.70      10.81
O       4.52       3.89      10.81
O      11.71       4.91       8.51
O       2.67      12.68       8.51
O       9.92      15.42      12.47
O       4.46       2.16      12.47
O      11.65       6.63       6.85
O       2.73      10.96       6.85
