147

Al       4.09       6.95      12.07
Al       0.38      20.87      20.11
Al       3.93      20.88       4.01
H       2.08      12.83      22.27
H       2.33      36.95      20.12
H       2.01      12.84      17.98
H       1.25      14.74      22.08
H       3.14      14.63      18.19
H       3.13      39.55      23.81
H       1.23      36.22      21.80
H       1.30      36.21      18.41
H       3.04      11.72      16.48
H       2.05      12.85       1.87
H       1.97       9.12       4.01
H       2.13      12.84       6.16
H       2.95      14.72       2.07
H       1.05      14.67       5.95
H       1.17      11.73       0.33
H       3.08       8.40       2.33
H       3.03       8.39       5.72
H       1.08      11.72       7.66
H       2.26      23.00      12.06
H       2.37      26.72       9.92
H       2.24      26.72      14.21
H       1.39      22.24      13.80
H       3.31      25.63      15.69
H       3.10      22.21      10.30
H       1.20      25.65       8.48
H       1.34      28.57      10.14
H       3.29      28.58      13.99
C       2.28      32.73      12.07
C       2.08       7.98      13.85
C       2.07       7.98      10.29
C       2.39      18.82      20.12
C       2.39      21.89      21.89
C       2.39      21.89      18.34
C       1.92      21.90       2.24
C       1.92      18.84       4.02
C       1.93      21.91       5.79
C       2.24      38.72      21.35
C       2.08      12.29      21.33
C       2.11      13.01      20.13
C       2.07      12.29      18.92
C       2.07      10.89      18.90
C       2.27      38.04      20.13
C       1.83      16.62      21.24
C       1.72      15.23      21.23
C       2.18      14.48      20.13
C       2.73      15.17      19.04
C       2.78      16.56      19.04
C       2.34      17.32      20.13
C       2.67      38.56      23.82
C       2.45      23.97       0.88
C       1.95      22.67       0.94
C       1.62      35.99      23.89
C       1.65      36.69      22.69
C       2.19      37.98      22.63
C       1.75      36.69      17.54
C       1.76      35.99      16.33
C       2.07       8.72      15.14
C       2.59      10.04      15.25
C       2.59      10.73      16.46
C       2.07      10.15      17.62
C       2.07      10.90       2.79
C       2.05      12.30       2.81
C       2.04      13.02       4.01
C       2.06      12.30       5.22
C       2.05      10.90       5.23
C       2.04      10.21       4.01
C       2.44      16.62       2.92
C       2.50      15.23       2.92
C       2.01      14.50       4.01
C       1.48      15.20       5.11
C       1.47      16.59       5.11
C       1.94      17.33       4.02
C       1.64      10.74       0.32
C       1.85      23.95      23.25
C       2.36      22.65      23.19
C       2.69       8.17       0.24
C       2.66       8.87       1.44
C       2.11      10.16       1.51
C       2.58       8.86       6.59
C       2.58       8.16       7.80
C       2.06       8.72       8.99
C       1.54      10.04       8.89
C       1.53      10.73       7.68
C       2.05      10.15       6.51
C       2.26      24.78      10.84
C       2.28      24.09      12.06
C       2.31      24.78      13.29
C       2.30      26.18      13.27
C       2.31      26.89      12.06
C       2.30      26.18      10.86
C       1.90      22.03      15.87
C       1.85      22.73      14.66
C       2.34      24.04      14.57
C       2.87      24.63      15.73
C       2.86      23.95      16.94
C       2.39      22.63      17.04
C       2.62      22.71       9.46
C       2.50      22.02       8.25
C       1.98      22.63       7.11
C       1.54      23.96       7.22
C       1.61      24.65       8.43
C       2.17      24.04       9.56
C       1.78      29.09      10.98
C       1.78      30.48      10.98
C       2.30      31.23      12.07
C       2.82      30.49      13.15
C       2.84      29.09      13.14
C       2.31      28.37      12.06
Cl       3.42      17.37      17.65
Cl       1.30      17.49      22.63
Cl       3.00      24.75       2.33
Cl       1.00      34.38      23.90
Cl       1.14      34.38      16.41
Cl       3.20      10.91      13.89
Cl       0.86      17.42       6.50
Cl       3.00      17.47       1.52
Cl       1.30      24.73      21.81
Cl       3.31       6.56       0.22
Cl       3.20       6.55       7.72
Cl       0.93      10.90      10.25
Cl       3.47      24.74      18.35
Cl       1.32      20.40      15.92
Cl       3.02      20.37       8.19
Cl       0.89      24.76       5.83
Cl       1.16      31.22       9.55
Cl       3.44      31.23      14.58
O       1.12       8.20      11.10
O       1.33      33.31      11.47
O       1.32      35.00      13.64
O       3.03       7.16      10.50
O       3.03       8.20      13.04
O       3.23      33.32      12.67
O       1.45      22.13      19.15
O       1.45      19.41      19.50
O       1.44      21.06      21.69
O       3.35      21.08      18.54
O       3.35      22.12      21.10
O       3.35      19.38      20.71
O       0.96      21.11       5.60
O       0.96      22.14       3.03
O       0.96      19.41       3.42
O       2.86      22.15       4.97
O       2.87      19.42       4.63
O       2.86      21.08       2.44
