180

Al       5.04       9.72      19.00
Al       1.64      19.17       6.32
Al       1.70       9.67      18.98
Al       4.98      19.22       6.34
H       1.75      16.91       2.78
H       4.93      11.98      22.54
H       5.09      21.48       9.88
H       1.59       7.42      15.44
H       1.78      14.99       1.19
H       4.90      13.90      24.13
H       5.12      23.40      11.47
H       1.56       5.49      13.85
H       2.21      13.73      13.57
H       4.47      15.16      11.74
H       5.55       5.66      24.40
H       1.13      23.23       0.91
H       6.05      11.91       4.03
H       5.39      11.37       2.47
H       3.12      11.10       3.50
H       4.34      10.11       4.34
H       3.77      11.63       5.08
H       1.29      17.52      22.85
H       0.62      16.98      21.29
H       2.90      17.26      20.24
H       2.34      18.78      20.97
H       3.56      17.79      21.81
H       2.72       2.54       8.64
H       2.04       3.08      10.20
H       6.46       3.34       9.15
H       1.00       4.34       8.31
H       0.44       2.82       7.58
H       4.63      25.81      15.13
H       3.96      26.36      16.69
H       6.25      26.07      17.74
H       5.67      24.55      17.00
H       0.21      25.54      16.16
H       5.76      15.07       6.46
H       5.02      13.60       5.75
H       2.73      14.50       6.40
H       3.79      14.23       7.81
H       3.52      15.88       7.21
H       1.66      15.29      19.56
H       0.91      13.82      18.86
H       3.15      13.01      18.11
H       2.88      14.66      17.51
H       3.95      14.39      18.91
H       2.42      23.32       6.20
H       1.68      24.79       6.90
H       6.07      23.89       6.26
H       0.46      24.15       4.85
H       0.19      22.51       5.45
H       5.00       4.10      18.41
H       4.25       5.57      19.12
H       6.49       6.38      19.87
H       6.22       4.74      20.47
H       0.61       5.00      19.06
H       3.32      11.30      19.61
H       3.35      17.59       5.71
H       6.66       8.09      18.37
H       0.02      20.80       6.95
C       3.39       8.14      20.85
C       3.29      20.76       4.47
C       0.05      11.26      17.13
C       6.63      17.64       8.19
C       3.39       7.98      17.31
C       3.29      20.91       8.01
C       0.05      11.41      20.67
C       6.63      17.48       4.65
C       0.97      16.16       2.81
C       5.71      12.74      22.51
C       4.31      22.23       9.85
C       2.37       6.66      15.47
C       0.99      15.08       1.94
C       5.69      13.81      23.38
C       4.33      23.31      10.72
C       2.35       5.58      14.60
C       6.66      14.10       2.00
C       0.01      14.79      23.32
C       3.33      24.29      10.66
C       3.35       4.60      14.65
C       5.67      14.18       2.99
C       1.01      14.71      22.33
C       2.33      24.21       9.67
C       4.35       4.68      15.64
C       5.61      15.30       3.84
C       1.06      13.59      21.48
C       2.28      23.09       8.82
C       4.40       5.80      16.50
C       6.61      16.30       3.74
C       0.07      12.60      21.58
C       3.27      22.09       8.92
C       3.41       6.80      16.40
C       5.59      12.81       0.11
C       1.09      16.08      25.20
C       2.25      25.58      12.54
C       4.43       3.32      12.77
C       5.60      16.74      24.48
C       1.08      12.15       0.84
C       2.26       2.65      13.49
C       4.42      26.24      11.82
C       0.01      15.88      24.33
C       6.66      13.01       0.99
C       3.35       3.52      13.65
C       3.33      25.38      11.67
C       1.24      14.04      13.18
C       5.43      14.85      12.14
C       4.58       5.35      24.80
C       2.09      23.54       0.52
C       0.06      13.63      13.82
C       6.62      15.26      11.50
C       3.40       5.76      24.16
C       3.28      23.13       1.16
C       5.51      14.06      13.26
C       1.16      14.83      12.05
C       2.17       5.33      24.71
C       4.50      23.56       0.61
C       0.08      12.81      14.97
C       6.60      16.08      10.35
C       3.41       6.58      23.01
C       3.26      22.31       2.31
C       6.62      16.79       9.36
C       0.06      12.10      15.96
C       3.28      21.60       3.30
C       3.40       7.29      22.02
C       5.14      11.87       3.41
C       4.02      11.14       4.13
C       1.54      17.02      21.90
C       2.65      17.75      21.19
C       1.80       2.58       9.25
C       0.69       3.31       8.53
C       4.88      26.32      16.07
C       5.99      25.58      16.79
C       4.85      14.66       5.99
C       3.65      14.84       6.90
C       1.83      14.23      19.32
C       3.03      14.05      18.41
C       1.51      23.73       6.66
C       0.31      23.55       5.76
C       5.17       5.17      18.65
C       6.37       5.34      19.56
O       2.24       8.41      17.66
O       4.44      20.48       7.66
O       5.58      10.98      20.32
O       1.10      17.91       5.00
O       4.53       8.49      20.41
O       2.15      20.40       4.91
O       1.19      10.91      17.57
O       5.49      17.99       7.75
O       4.50       8.48      17.67
O       2.18      20.41       7.65
O       1.16      10.91      20.31
O       5.52      17.98       5.01
O       5.58      10.96      17.60
O       1.10      17.93       7.72
O       2.24       8.43      20.38
O       4.44      20.46       4.94
O       3.36      10.51      19.04
O       3.32      18.38       6.28
O       0.02       8.88      18.94
O       6.65      20.01       6.38
O       4.69      13.23       3.16
O       1.98      15.66      22.16
O       1.36      25.16       9.50
O       5.32       3.73      15.82
O       4.60      15.39       4.76
O       2.08      13.50      20.56
O       1.26      23.00       7.90
O       5.42       5.89      17.42
F       4.52      13.64       0.16
F       2.16      15.25      25.16
F       1.18      24.75      12.50
F       5.50       4.14      12.82
F       4.54      16.63      23.65
F       2.14      12.26       1.67
F       1.20      26.71      14.33
F       5.48       2.18      10.99
F       2.31      15.23      11.44
F       4.37      13.66      13.88
F       5.65      23.16       1.22
F       1.03       5.73      24.10
