34

Zn       0.49       5.83       4.70
Zn      -4.10       2.55       7.05
H       5.34      -0.09       3.45
H       0.75       3.29       1.04
H      -3.39       1.45       4.23
H       1.19       3.53       2.75
H      -2.37       5.06       8.15
H      -6.96       6.06       7.43
H      -1.01       5.94       7.50
H      -5.60       5.15       8.05
C       5.29      -0.08       5.49
C       0.70       5.22       1.72
C      -1.83       4.53       6.26
C      -6.42       4.44       6.32
N       5.54       0.46       4.30
N       0.95       3.91       1.83
N      -3.94       0.60       6.67
N       0.64       6.11       2.74
N      -4.17      -0.32       7.64
N       0.42       7.33       2.19
N      -4.27      -1.49       7.11
N       0.32       7.21       0.90
N       5.07      -1.39       5.76
N       0.48       5.90       0.56
N      -1.63       5.12       7.46
N      -6.22       5.38       7.27
N      -1.18       4.81       5.11
N      -5.77       3.26       6.21
N      -1.66       3.95       4.16
N       2.93       2.64       5.09
N      -2.56       3.20       4.69
N       2.03       3.39       4.55
N      -2.70       3.52       6.02
N       1.89       4.54       5.29
