153

Cd      -0.00      -0.00      13.53
Cd      -0.00      11.72       6.76
Cd       8.85       3.91       6.76
H      -1.04       2.18      11.45
H      -0.53       3.25       9.23
H       3.43       1.52       9.51
H       2.74       0.53      11.71
H       3.39      -3.19       9.70
H       3.89      -1.81      11.73
H       7.85      -1.19      10.09
H       7.16      -2.60       8.13
H       7.81       1.01       5.92
H       8.32      -1.44       6.10
H      -1.00      -0.34       7.45
H      -1.69       2.07       7.21
H       1.04      -2.18      11.45
H       0.53      -3.25       9.23
H      -3.43      -1.52       9.51
H      -2.74      -0.53      11.71
H      -3.39       3.19       9.70
H      -3.90       1.81      11.73
H       5.42       1.19      10.09
H       6.11       2.60       8.13
H       5.46      -1.01       5.92
H       4.95       1.44       6.10
H       1.00       0.34       7.45
H       1.69      -2.07       7.21
H       5.46       5.63       2.08
H       4.95       4.56       4.30
H       1.00       6.29       4.02
H       1.69       7.28       1.81
H       1.04      11.00       3.83
H       0.53       9.62       1.80
H      -3.43       9.00       3.44
H      -2.74      10.41       5.40
H      -3.39       6.80       7.61
H      -3.90       9.25       7.43
H       5.42       8.15       6.07
H       6.11       5.74       6.32
H       3.39       9.99       2.08
H       3.89      11.06       4.30
H       7.85       9.33       4.02
H       7.16       8.35       1.81
H       7.81       4.62       3.83
H       8.32       6.00       1.80
H      -1.00       6.62       3.44
H      -1.69       5.21       5.39
H      -1.04       8.82       7.61
H      -0.53       6.37       7.43
H       3.43       7.48       6.08
H       2.74       9.88       6.32
H       1.00       4.98       8.62
H       5.42      -2.15      13.53
H       5.42      12.79       4.91
H      -1.00      -4.98       8.62
H      -1.00       9.96       0.00
H       3.43       2.83       4.91
C      -0.06       2.07      10.97
C       0.23       2.66       9.75
C       1.50       2.47       9.18
C       2.42       1.69       9.90
C       2.05       1.15      11.13
C       1.86       3.14       7.91
C       4.37      -2.73       9.83
C       4.66      -1.96      10.96
C       5.93      -1.37      11.08
C       6.85      -1.61      10.04
C       6.48      -2.40       8.96
C       6.28      -0.61      12.30
C       8.79       0.66       6.25
C       9.08      -0.70       6.35
C      -2.92      -1.10       6.80
C      -2.00      -0.08       7.11
C      -2.37       1.25       6.97
C      -2.57      -2.53       6.85
C       0.06      -2.07      10.97
C      -0.23      -2.66       9.75
C      -1.50      -2.47       9.18
C      -2.42      -1.69       9.90
C      -2.05      -1.15      11.13
C      -1.86      -3.15       7.91
C      -4.37       2.73       9.84
C      -4.66       1.96      10.96
C       7.35       1.37      11.08
C       6.42       1.61      10.04
C       6.80       2.40       8.96
C       6.99       0.61      12.30
C       4.48      -0.66       6.25
C       4.19       0.70       6.35
C       2.92       1.10       6.80
C       2.00       0.08       7.11
C       2.37      -1.25       6.97
C       2.57       2.53       6.85
C       4.48       5.74       2.56
C       4.19       5.15       3.78
C       2.92       5.34       4.35
C       2.00       6.12       3.63
C       2.37       6.66       2.40
C       2.57       4.67       5.62
C       0.06      10.54       3.69
C      -0.23       9.77       2.57
C      -1.50       9.18       2.45
C      -2.42       9.42       3.49
C      -2.05      10.21       4.57
C      -1.86       8.42       1.23
C      -4.37       7.15       7.28
C      -4.66       8.51       7.17
C       7.35       8.91       6.73
C       6.42       7.89       6.41
C       6.80       6.56       6.56
C       6.99      10.34       6.68
C       4.37       9.88       2.56
C       4.66      10.47       3.78
C       5.93      10.28       4.35
C       6.85       9.50       3.63
C       6.48       8.96       2.40
C       6.28      10.96       5.62
C       8.79       5.08       3.69
C       9.08       5.85       2.57
C      -2.92       6.44       2.45
C      -2.00       6.20       3.48
C      -2.37       5.41       4.57
C      -2.57       7.20       1.23
C      -0.06       8.47       7.28
C       0.23       7.11       7.17
C       1.50       6.71       6.73
C       2.42       7.73       6.41
C       2.05       9.06       6.56
C       1.86       5.28       6.68
C       1.51       4.50       7.79
C       5.94      -1.19      13.53
C       5.94      12.31       5.74
C      -1.51      -4.50       7.79
C      -1.51       9.00       0.00
C       2.91       3.31       5.74
N       0.83       1.33      11.66
N       5.25      -2.95       8.85
N      -3.59       1.62       6.55
N      -0.83      -1.33      11.66
N       8.02       2.95       8.85
N       3.59      -1.62       6.55
N       3.59       6.48       1.87
N      -0.83      10.76       4.68
N       8.02       6.19       6.98
N       5.25       9.14       1.87
N      -3.59       4.86       4.68
N       0.83       9.43       6.98
Cl       6.67       6.48       0.00
Cl       6.67      -3.24       5.62
Cl      -2.18       4.57       7.91
Cl      -2.24       1.33      13.53
Cl       6.61       3.24       5.61
Cl      -2.24      11.05       7.91
