79

Al       0.83      10.91       9.00
Al       4.17      10.90       8.96
Al       4.27       5.04      17.87
Al       0.94       5.08      17.89
H       4.03      12.07       4.80
H       1.37      16.25       4.87
H       2.35      15.20       3.79
H       2.39      13.40       5.50
H       0.68       9.58      13.08
H       0.76       8.19      15.15
H       4.88       6.92      11.16
H       5.77       8.25      11.95
H       5.85       6.94      14.08
H       2.49      12.66       8.90
H       5.85       9.19       8.77
H       2.56      15.00       0.49
H       5.83       1.73       0.31
C       2.50       8.97       7.50
C       2.51       9.66      11.05
C       5.83      12.81      10.45
C       5.86      12.08       6.86
C       0.25      13.68       5.24
C       5.89      12.82       5.57
C       4.85      12.76       4.63
C       4.86      13.55       3.46
C       5.91      14.48       3.19
C       0.25      14.51       4.12
C       1.53      15.22       4.51
C       1.62      14.16       5.70
C       6.07      18.76      15.47
C       6.03      17.81      14.71
C       5.97      16.78      13.85
C       5.92      15.83      13.06
C       5.87      14.82      12.19
C       5.83      13.89      11.38
C       2.47       7.85       6.59
C       2.47       6.91       5.81
C       2.48       5.88       4.95
C       2.49       4.94       4.15
C       2.50       3.92       3.29
C       2.51       2.98       2.49
C       3.65       8.06      12.61
C       2.57       8.89      12.32
C       1.53       8.92      13.26
C       1.57       8.14      14.42
C       2.65       7.27      14.69
C       3.68       7.28      13.76
C       5.04       6.65      13.41
C       4.96       7.53      12.07
C       2.66       6.42      15.91
C       2.48       1.90       1.54
C       5.89      15.36       1.98
C       6.07      19.89      16.37
C       3.78      13.38       2.53
C       1.81      14.60       7.07
C       5.07       5.21      13.22
N       2.88      13.21       1.81
N       1.99      14.89       8.18
N       5.09       4.06      13.03
O       3.63       9.89      10.48
O       1.37       9.39       7.92
O       0.30      11.84       7.38
O       1.36       9.99      10.61
O       0.29      12.37      10.09
O       3.64       9.42       7.82
O       2.50      11.69       8.80
O       4.70      12.37      10.05
O       4.71      11.80       7.32
O       5.85      10.10       9.10
O       1.33       1.42       1.29
O       3.79       5.95      16.27
O       4.95      20.23      16.86
O       3.60       1.55       1.04
O       4.75      15.76       1.60
O       1.55       6.24      16.51
O       2.58      15.91       0.15
O       0.34      15.61       1.47
O       0.51      20.43      16.61
O       5.94       5.88      17.81
