62

Zn       5.52       8.91       8.06
Zn       5.54       6.09       8.13
H       1.28       6.62       9.92
H       9.79       6.63       9.93
H       2.51       8.37       5.63
H       8.55       8.40       5.64
H       4.40       9.38      14.94
H       4.38       9.24       1.23
H       6.87       5.71       1.24
H       6.88       5.85      14.94
H       3.78       1.33       9.37
H       7.27       1.31       6.81
H       2.64       8.95       3.44
H       8.41       9.18       3.51
H       3.81      13.68       9.37
H       7.29      13.66       6.80
C       5.55       7.52      10.70
C       5.56       7.48       5.47
C       6.32       6.48       0.69
C       6.34       6.62      15.49
C       5.61       7.46       2.81
C       5.61       7.59      13.36
C       5.58       7.57      12.14
C       5.59       7.45       4.03
C       4.57      14.23       8.81
C       6.54      14.22       7.36
C       5.55      13.54       8.08
C       6.51       0.76       7.36
C       4.53       0.77       8.82
C       5.53       1.46       8.09
C       5.53      12.12       8.08
C       5.54       2.88       8.10
C       2.93       7.49       8.02
C       8.13       7.51       8.04
C       1.42       8.35       5.63
C       9.64       8.40       5.65
C       0.74       8.77       4.50
C      10.32       8.75       4.50
C      10.32       7.97       6.83
C       0.74       7.94       6.81
C       1.44       7.47       7.97
C       9.63       7.51       7.98
C       0.73       7.00       9.06
C      10.33       7.01       9.06
C       4.92       8.47       0.69
C       4.94       8.61      15.49
C       5.62       7.47       1.40
C       5.63       7.61      14.78
C       1.59       9.35       3.43
C       9.47       8.91       3.28
N       5.54       4.04       8.12
N       5.52      10.96       8.07
O       5.53       8.64      10.09
O       5.52       8.64       6.01
O       5.54       6.36      10.17
O       5.57       6.35       6.08
O       3.49       8.63       7.99
O       7.56       8.65       7.98
O       3.51       6.36       8.12
O       7.57       6.38       8.16
O       1.26      10.23       2.65
O       9.83       8.68       2.14
