154

Zn      10.46       8.57      11.85
Zn       7.48       8.67      12.04
H       6.44       6.14       1.57
H      11.07      11.96      22.31
H      10.85      15.25      10.50
H       6.99       1.95      10.56
H       5.60       9.29      10.08
H      12.35       7.17      13.31
H      17.06       8.19      13.42
H       0.82       8.96      10.46
H       2.59       7.96      13.68
H      15.32      10.02      10.68
H       7.39       9.84      16.02
H      10.35       7.25       7.61
H      11.04       8.01      18.81
H       7.25      10.33       5.28
H       6.80      12.41      10.26
H      10.99       4.87      10.37
H       7.62      16.92       9.44
H      10.24       0.33       9.51
H      12.19       8.72       8.61
H      12.30      10.34       7.90
H      13.79       9.46       8.31
H      11.67      10.51      10.31
H      13.26      11.23      10.04
H       4.63       5.63      14.09
H       6.24       6.04      13.47
H       5.96       5.93      15.23
H       6.09       8.31      14.55
H       4.45       7.93      15.13
H      13.20       6.37      15.26
H      13.48       5.16      13.99
H      14.49       5.16      15.44
H      15.79       6.14      13.58
H      15.49       7.34      14.82
H       4.63      10.78       8.56
H       4.72       9.10       7.99
H       3.54      10.22       7.27
H       2.36       8.70       8.82
H       2.28      10.36       9.40
H       7.23       3.97      22.00
H       8.58       5.03      21.54
H       8.42       4.46      23.23
H       6.27       5.77      23.44
H       6.46       6.34      21.77
H      12.72      12.38       1.74
H      12.22      10.72       2.11
H      12.55      11.19       0.43
H      10.59      12.78       0.50
H      10.27      12.29       2.18
H       5.38       9.06      17.59
H       5.84       8.38      19.16
H       4.78       9.82      19.08
H       7.10      10.53      19.70
H       6.67      11.17      18.12
H      10.07       5.13       5.99
H       9.10       5.40       4.53
H      10.80       4.87       4.39
H      10.65       7.31       3.87
H      11.57       7.05       5.35
C       8.96       6.07      11.63
C       8.80      11.17      11.55
C       8.09       9.58      18.04
C       9.65       7.90       5.68
C       8.19       9.45      16.65
C       9.67       7.91       7.08
C       9.27       8.83      16.01
C       8.83       8.73       7.85
C      10.29       8.33      16.82
C       7.99       9.61       7.16
C      10.24       8.42      18.20
C       7.93       9.64       5.78
C       9.14       9.05      18.80
C       8.74       8.77       5.06
C       8.94       4.71      11.00
C       8.85      12.53      10.91
C       7.82       3.86      10.98
C       9.98      13.35      10.90
C       7.86       2.59      10.44
C       9.97      14.63      10.37
C       9.04       2.08       9.86
C       8.80      15.16       9.79
C       9.26       8.73      14.51
C       8.88       8.64       9.34
C      10.14       2.97       9.82
C       7.70      14.29       9.73
C      10.11       4.23      10.38
C       7.69      13.02      10.29
C       9.21       0.67       9.56
C       8.65      16.58       9.52
C       4.87       9.01      10.85
C      13.06       7.77      12.75
C       3.50       9.07      10.59
C      14.43       7.68      13.00
C       2.63       8.69      11.64
C      15.28       8.50      12.22
C       3.21       8.28      12.85
C      14.69       9.34      11.27
C       4.59       8.24      13.03
C      13.31       9.38      11.07
C       1.18       8.73      11.46
C      16.72       8.47      12.42
C       9.36       9.76       2.92
C       8.48       8.08      20.94
C       7.78       7.82       3.05
C       9.81      10.21      20.83
C       7.72       7.82       1.57
C       9.90      10.19      22.30
C       8.41       8.80       0.81
C       9.26       9.17      23.06
C       9.20       9.81       1.44
C       8.51       8.13      22.42
C       6.96       6.85       0.94
C      10.62      11.19      22.94
C       7.83       7.18      23.20
C       9.81      10.82       0.67
C      12.71      10.28      10.03
C      12.75       9.66       8.63
C       5.18       7.74      14.32
C       5.52       6.25      14.27
C      14.98       6.74      14.05
C      13.98       5.81      14.72
C       2.98       9.51       9.24
C       4.03       9.92       8.21
C       7.00       6.03      22.67
C       7.86       4.80      22.34
C      10.66      11.94       1.21
C      12.13      11.53       1.38
C       6.88      10.23      18.66
C       5.64       9.32      18.62
C      10.56       6.97       4.92
C      10.10       5.51       4.95
N       8.62       8.79       3.62
N       9.13       9.13      20.25
N       5.41       8.62      12.02
N      12.51       8.59      11.82
O      10.10       6.53      11.96
O       7.66      10.75      11.93
O       7.84       6.67      11.75
O       9.90      10.53      11.61
O      10.37       8.71      13.91
O       7.80       8.85       9.97
O       8.11       8.69      13.97
O      10.01       8.33       9.84
O      10.11      10.51       3.56
O       7.94       7.19      20.29
O       7.17       7.02       3.75
O      10.31      11.09      20.13
F      11.30       2.54       9.24
F       6.55      14.74       9.14
F      11.36       7.69      16.28
F       7.21      10.50       7.85
F       6.66       4.23      11.58
F      11.14      12.94      11.50
