46

Cu       9.21       5.64       0.65
Cu       8.25       8.62      11.60
H       6.44       8.79       9.00
H       6.64       8.18       6.62
H      10.59       6.64       7.54
H      10.22       7.40       9.89
H      15.41      13.38      11.40
H      15.53      10.96      10.97
H      10.13      10.74      12.17
H       6.39      10.93       0.41
H      11.02       5.47       3.26
H      10.82       6.08       5.63
H       6.87       7.62       4.72
H       7.24       6.87       2.36
H       2.05       0.88       0.86
H       1.93       3.30       1.29
H       7.33       3.52       0.08
H      11.07       3.33      11.84
C       7.35       8.32       8.63
C       7.47       7.96       7.29
C       8.64       7.33       6.83
C       9.64       7.12       7.80
C       9.45       7.52       9.11
C       9.33       0.72       0.15
C       1.11       1.40       0.66
C      10.39       2.76       0.91
C       9.26      11.39      12.01
C       5.46      10.49       0.04
C       7.44       5.97       0.08
C      10.11       5.94       3.63
C       9.99       6.30       4.96
C       8.81       6.93       5.42
C       7.81       7.14       4.46
C       8.00       6.74       3.14
C       8.13      13.54      12.10
C      16.35      12.86      11.59
C       7.06      11.50      11.34
C       8.19       2.87       0.24
C      11.99       3.77      12.22
C      10.02       8.29      12.17
N       8.32       8.11       9.54
N       9.29       3.50       0.70
N       6.52       8.28      12.10
N       9.14       6.15       2.72
N       8.17      10.76      11.55
N      10.94       5.98       0.15
