354

Cd       0.66      15.34      10.29
Cd       2.49       9.18       0.38
Cd       4.32      25.11       8.14
Cd       6.15      15.93       7.76
Cd       7.98      22.09      17.67
Cd       9.81       6.16       9.91
H       1.70      17.52       2.47
H       3.53      27.46      16.41
H       5.36       9.94      13.94
H       7.19      13.75      15.58
H       9.02       3.80       1.64
H      10.85      21.32       4.11
H      10.37      17.38       3.48
H       1.22      26.53      16.79
H       3.05       9.14      13.32
H       4.88      13.88      14.58
H       6.71       4.74       1.26
H       8.54      22.12       4.73
H      10.11      16.71       5.85
H       0.96      24.13      17.39
H       2.79       7.43      11.54
H       4.62      14.56      12.21
H       6.45       7.13       0.66
H       8.28      23.84       6.51
H       4.15      19.06       4.01
H       5.98      16.47       0.46
H       7.81      28.68      14.50
H       9.64      12.21      14.04
H       0.49      14.79      17.59
H       2.32       2.58       3.56
H       6.53      19.19       3.35
H       8.36      17.11       0.24
H      10.19      29.19      14.94
H       1.04      12.08      14.70
H       2.87      14.15      17.81
H       4.70       2.07       3.11
H       6.41      14.86       2.72
H       8.24      25.92      14.23
H      10.07      11.05      11.51
H       0.91      16.40      15.33
H       2.74       5.35       3.82
H       4.57      20.21       6.54
H       4.03      14.93       3.45
H       5.86      25.32      14.66
H       7.69      10.39      11.20
H       9.52      16.34      14.60
H       0.37       5.95       3.39
H       2.20      20.88       6.85
H       3.76      16.49      10.92
H       5.59       9.21       1.69
H       7.42      23.99       8.82
H       9.25      14.77       7.13
H       0.10      22.05      16.36
H       1.93       7.28       9.23
H       4.35      18.33      12.91
H       6.18       8.41       4.28
H       8.01      21.34       9.42
H       9.85      12.93       5.14
H       0.69      22.86      13.77
H       2.52       9.93       8.63
H       0.16      17.78      12.72
H       1.99       8.30       3.71
H       3.82      21.78       9.04
H       5.65      13.49       5.33
H       7.48      22.97      14.34
H       9.31       9.49       9.01
H       2.63      19.13      15.02
H       4.46       6.98       6.02
H       6.29      19.12       9.05
H       8.12      12.14       3.03
H       9.95      24.29      12.03
H       0.80      12.15       9.00
H       1.00      19.43      14.41
H       2.83       7.66       5.98
H       4.66      19.49       9.62
H       6.49      11.83       3.64
H       8.32      23.61      12.07
H      10.15      11.77       8.43
H       3.48      21.30      15.42
H       5.31       7.72       8.11
H       7.14      17.68      10.74
H       8.97       9.96       2.63
H      10.80      23.54       9.94
H       1.65      13.58       7.31
H       4.09      23.55      14.62
H       5.92       9.53       9.66
H       7.76      17.25      13.08
H       9.59       7.72       3.43
H       0.43      21.73       8.40
H       2.26      14.02       4.97
H       2.31      22.69      10.79
H       4.14      12.42       6.99
H       5.97      21.00      14.25
H       7.80       8.58       7.26
H       9.64      18.85      11.06
H       0.48      10.27       3.80
H       1.69      20.43      11.60
H       3.52      10.59       5.44
H       5.35      21.43      11.90
H       7.18      10.84       6.45
H       9.01      20.67      12.61
H      10.84       9.84       6.16
H       4.18      25.22      12.86
H       6.01      11.89      10.22
H       7.84      17.94      15.41
H       9.67       6.05       5.19
H       0.52      19.37       7.83
H       2.35      13.32       2.64
H       3.88      24.72      11.18
H       5.71      13.10       8.95
H       7.54      19.64      15.82
H       9.37       6.54       6.87
H       0.22      18.17       9.10
H       2.05      11.62       2.23
H       1.97      25.89      14.29
H       3.80      10.99      11.52
H       5.63      16.36      15.27
H       7.46       5.38       3.76
H       9.29      20.28       6.53
H       0.14      14.90       2.78
H      10.57      26.97      13.38
H       1.41      12.32      12.00
H       3.24      16.61      16.67
H       5.07       4.29       4.67
H       6.91      18.95       6.05
H       8.74      14.65       1.38
H       1.70      25.34      10.10
H       3.53      14.35       8.94
H       5.36      20.27      16.90
H       7.19       5.92       7.96
H       9.02      16.92       9.11
H      10.85      10.99       1.15
C       1.10      16.14       7.66
C       2.93      22.28      17.81
C       4.76       6.14      10.15
C       6.59      15.13      10.39
C       8.42       8.99       0.24
C      10.25      25.13       7.91
C       3.77      16.28       6.45
C       5.60      23.40      17.33
C       7.43       7.11      10.87
C       9.26      14.98      11.60
C       0.11       7.87       0.72
C       1.94      24.15       7.18
C       1.24      16.51       6.21
C       3.07      23.72      17.41
C       4.90       7.21      11.19
C       6.73      14.75      11.84
C       8.56       7.55       0.64
C      10.39      24.06       6.86
C       2.53      16.60       5.66
C       4.36      24.24      17.21
C       6.19       7.64      11.55
C       8.02      14.66      12.39
C       9.85       7.02       0.84
C       0.70      23.62       6.50
C       2.67      16.95       4.31
C       4.50      25.59      16.84
C       6.33       8.64      12.53
C       8.16      14.31      13.74
C       9.99       5.68       1.21
C       0.84      22.63       5.52
C       1.55      17.25       3.52
C       3.38      26.42      16.70
C       5.22       9.17      13.18
C       7.05      14.02      14.53
C       8.88       4.85       1.35
C      10.71      22.10       4.87
C       0.27      17.17       4.08
C       2.10      25.90      16.91
C       3.93       8.73      12.83
C       5.76      14.09      13.97
C       7.60       5.37       1.14
C       9.43      22.54       5.22
C       0.12      16.79       5.41
C       1.95      24.55      17.25
C       3.78       7.76      11.84
C       5.61      14.47      12.64
C       7.45       6.71       0.80
C       9.28      23.51       6.22
C       4.71      18.18       3.71
C       6.54      26.72      17.59
C       8.37       8.55      13.89
C      10.20      13.09      14.34
C       1.05       4.55       0.46
C       2.88      22.72       4.17
C       6.02      18.22       3.35
C       7.85      27.06      17.45
C       9.68       8.84      14.11
C       0.53      13.04      14.71
C       2.36       4.21       0.60
C       4.19      22.43       3.94
C       6.76      17.02       3.00
C       8.59      26.75      16.24
C      10.42       9.74      13.24
C       1.27      14.25      15.05
C       3.10       4.51       1.81
C       4.93      21.53       4.81
C       5.95      15.81       3.02
C       7.78      26.13      15.20
C       9.61      10.32      12.18
C       0.46      15.46      15.03
C       2.29       5.13       2.85
C       4.12      20.94       5.87
C       4.64      15.83       3.40
C       6.47      25.82      15.41
C       8.30       9.99      12.01
C      10.13      15.44      14.65
C       0.98       5.45       2.64
C       2.81      21.28       6.04
C       3.09      17.03      11.59
C       4.92       8.90       2.49
C       6.75      23.14       8.95
C       8.59      14.24       6.46
C      10.42      22.37      15.56
C       1.26       8.13       9.10
C       3.41      17.94      12.57
C       5.24       8.50       3.77
C       7.07      21.83       9.25
C       8.90      13.33       5.48
C      10.73      22.76      14.29
C       1.58       9.43       8.81
C       1.21      17.67      12.49
C       3.04       8.44       3.50
C       4.87      22.04       9.06
C       6.70      13.60       5.56
C       8.53      22.83      14.55
C      10.36       9.23       8.99
C       2.06      19.39      14.12
C       3.89       7.89       5.80
C       5.72      19.76       9.73
C       7.55      11.87       3.93
C       9.38      23.38      12.25
C       0.23      11.50       8.32
C       2.51      20.73      13.58
C       4.34       9.03       6.69
C       6.17      19.56      11.16
C       8.00      10.54       4.47
C       9.83      22.24      11.36
C       0.68      11.70       6.89
C       3.21      21.61      14.41
C       5.04       8.75       7.86
C       6.87      18.41      11.51
C       8.70       9.66       3.64
C      10.53      22.52      10.19
C       1.38      12.86       6.54
C       3.56      22.88      13.95
C       5.39       9.78       8.74
C       7.22      18.17      12.84
C       9.05       8.39       4.10
C      10.88      21.49       9.31
C       1.73      13.10       5.22
C       3.23      23.28      12.66
C       5.06      11.10       8.44
C       6.89      19.09      13.83
C       8.72       7.99       5.39
C      10.55      20.17       9.61
C       1.40      12.18       4.22
C       2.57      22.38      11.81
C       4.40      11.39       7.23
C       6.23      20.27      13.48
C       8.06       8.89       6.25
C       9.90      19.88      10.82
C       0.74      10.99       4.57
C       2.22      21.11      12.26
C       4.05      10.36       6.37
C       5.88      20.51      12.15
C       7.71      10.15       5.79
C       9.54      20.91      11.69
C       0.38      10.76       5.90
C       3.47      24.69      12.20
C       5.30      12.20       9.43
C       7.13      18.78      15.29
C       8.97       6.57       5.85
C      10.80      19.06       8.62
C       1.64      12.49       2.77
C       1.55      25.95      13.30
C       3.38      11.88      11.07
C       5.21      17.20      15.83
C       7.05       5.31       4.76
C       8.88      19.38       6.98
C      10.71      14.07       2.22
C       0.37      26.48      12.83
C       2.20      12.55      11.29
C       4.03      17.34      16.51
C       5.86       4.79       5.22
C       7.70      18.72       6.76
C       9.53      13.93       1.54
C       1.43      25.65      11.10
C       3.27      13.63       9.71
C       5.10      19.25      16.66
C       6.93       5.62       6.95
C       8.76      17.64       8.34
C      10.59      12.02       1.39
N       1.72      16.87      11.56
N       3.55       8.85       2.34
N       5.38      23.24       8.83
N       7.21      14.39       6.49
N       9.04      22.42      15.71
N      10.87       8.02       9.22
N       2.21      18.33      13.13
N       4.04       8.22       4.39
N       5.87      21.15       9.31
N       7.70      12.93       4.92
N       9.53      23.05      13.66
N       0.38      10.12       8.74
N       2.22      25.45      12.19
N       4.05      12.59      10.08
N       5.88      18.41      15.94
N       7.71       5.82       5.86
N       9.54      18.68       7.97
N       0.39      12.86       2.11
N       0.31      26.27      11.46
N       2.14      13.64      10.43
N       3.97      18.63      17.02
N       5.81       4.99       6.59
N       7.64      17.63       7.62
N       9.47      12.64       1.03
N       4.00      16.99       3.75
N       5.83      26.10      16.59
N       7.66       9.10      12.84
N       9.49      14.27      14.31
N       0.34       5.17       1.46
N       2.17      22.16       5.21
O      10.96      15.67       8.07
O       1.80      21.69      17.60
O       3.64       6.02       9.53
O       5.47      15.60       9.98
O       7.30       9.58       0.45
O       9.13      25.25       8.52
O       2.09      16.31       8.43
O       3.92      11.28       0.28
O       5.75      26.24       9.91
O       7.58      14.96       9.62
O       9.41      19.99      17.77
O       0.26       5.03       8.14
O       4.06      15.06       6.64
O       5.89      22.62      16.36
O       7.72       7.56       9.72
O       9.55      16.21      11.41
O       0.40       8.65       1.69
O       2.23      23.70       8.33
O       4.50      17.26       6.81
O       6.33      13.16       0.30
O       8.16      27.16      11.55
O      10.00      14.01      11.24
O       0.84      18.11      17.75
O       2.67       4.10       6.51
O       7.99      17.01       2.70
O       9.82      27.01      16.08
O       0.66      10.00      13.38
O       2.49      14.25      15.35
O       4.32       4.25       1.97
O       6.15      21.27       4.67
