90

Zn      10.55       4.26      11.31
Zn       7.96       5.47      11.84
H      12.76       7.64      21.65
H       8.67       7.84       0.90
H      12.60       6.83       7.40
H      11.78       4.90       8.76
H      12.85       3.26      12.96
H       5.22       2.10       1.59
H       9.31       1.90      22.34
H       5.81       5.58       5.49
H       6.43       5.58       7.92
H      10.36       4.18       6.93
H       9.77       4.24       4.50
H      11.92       4.55      15.36
H      12.40       4.56      17.82
H       7.73       4.98      16.15
H       8.19       4.98      18.62
H       9.95       7.79       9.20
H      10.23       8.99       7.06
H       8.02       2.10       9.06
H       8.15       0.74      13.67
H       5.95       4.16      13.39
C      10.17       7.26      11.67
C       6.64       3.89       2.96
C       6.81       5.29       5.81
C       8.79       4.91       9.02
C       7.15       5.29       7.16
C       8.44       4.91       7.57
C       9.38       4.51       6.60
C       9.04       4.53       5.25
C       7.76       4.92       4.87
C      11.38       4.64      17.45
C      11.12       4.63      16.08
C      12.39       6.84      22.30
C       9.80       4.75      15.61
C       8.75       4.88      16.53
C       9.01       4.88      17.90
C       8.53       2.36      11.55
C      10.32       4.76      18.35
C      10.48       8.73       9.18
C      10.63       9.40       7.99
C       6.96       0.60       7.96
C       7.48       1.15       9.10
C       7.34       0.48      10.35
C       8.08       7.05       0.44
C      11.01       9.26      10.39
C      10.86       8.59      11.64
C      11.41       9.14      12.79
C       7.73       0.33      12.75
C       9.52       4.75      14.14
C       7.87       1.01      11.56
C       5.47       7.16      10.06
C      14.07       7.44       8.86
C      13.06       6.58       8.35
C      12.62       5.50       9.09
C       7.61       6.02       1.26
C      13.22       5.22      10.33
C       5.12       5.97      10.77
C       5.34       4.53      12.57
C      13.33       3.96      12.28
C      10.07       3.70      20.53
C      11.36       5.84      20.27
C      11.64       5.82      21.73
C      11.14       4.77      22.54
C      10.37       3.72      21.98
C       6.83       4.97       0.70
C       6.33       3.92       1.51
C       5.58       2.90       0.94
C       9.90       2.70      22.80
C       7.93       6.03       2.70
N      10.59       4.77      19.76
N       7.43       4.95       3.46
N       5.84       5.53      11.85
N      12.68       4.28      11.17
Cl      11.28       8.31      14.31
Cl       7.12       1.42       6.44
Cl       6.61       8.23      10.73
Cl      14.49       8.82       7.94
O      10.82       6.31      11.14
O      10.51       4.56      13.37
O       8.31       4.94      13.77
O       9.42       2.80      20.01
O      11.76       6.74      19.54
O       8.61       6.91       3.23
O       6.23       3.00       3.71
O       9.00       7.20      12.16
O       9.82       4.24       9.38
O       8.04       5.59       9.79
O       9.80       2.40      11.59
O       7.74       3.36      11.48
