147

Al       0.11       6.91      12.02
Al       0.47      20.76      20.04
Al       4.07      20.81       3.99
H       2.15      12.74      22.20
H       2.41      36.77      20.04
H       2.19      12.76      17.90
H       1.20      17.11      21.82
H       1.08      14.64      21.83
H       3.52      14.51      18.28
H       3.63      16.99      18.26
H       3.59      39.22      23.63
H       3.31      24.17       1.70
H       1.08      34.94      23.91
H       1.14      36.20      21.78
H       1.24      36.19      18.26
H       1.23      34.97      16.10
H       3.36      10.26      14.35
H       3.35      11.51      16.50
H       2.14      12.79       1.87
H       2.11       9.06       4.01
H       2.12      12.78       6.17
H       3.28      17.11       2.26
H       3.30      14.63       2.26
H       0.86      14.61       5.80
H       0.85      17.08       5.82
H       0.98      11.54       0.45
H       1.23      24.12      22.36
H       3.45       7.25       0.12
H       3.41       8.49       2.26
H       3.33       8.47       5.79
H       3.35       7.24       7.94
H       0.87      10.27       9.70
H       0.88      11.54       7.56
H       2.35      22.91      12.02
H       2.40      26.64       9.88
H       2.46      26.64      14.18
H       1.26      21.09      15.97
H       1.24      22.32      13.82
H       3.70      25.40      15.56
H       3.70      24.18      17.71
H       3.46      22.29      10.19
H       3.34      21.07       8.04
H       0.93      24.24       6.39
H       1.04      25.44       8.54
H       1.23      28.47      10.26
H       1.23      30.96      10.27
H       3.72      30.94      13.78
H       3.69      28.46      13.79
C       2.48      32.59      12.02
C       2.11       7.93      13.80
C       2.11       7.94      10.24
C       2.47      18.70      20.02
C       2.47      21.76      21.84
C       2.48      21.82      18.28
C       2.07      21.81       2.20
C       2.06      18.75       4.03
C       2.08      21.85       5.77
C       2.42      38.54      21.26
C       2.14      12.20      21.25
C       2.21      12.92      20.05
C       2.19      12.21      18.84
C       2.12      10.81      18.82
C       2.42      37.86      20.04
C       1.73      16.54      21.06
C       1.67      15.15      21.06
C       2.29      14.39      20.05
C       2.99      15.08      19.04
C       3.06      16.47      19.03
C       2.42      17.21      20.04
C       3.01      38.30      23.69
C       2.78      23.79       0.83
C       2.10      22.57       0.91
C       1.65      35.87      23.84
C       1.69      36.58      22.64
C       2.37      37.80      22.54
C       1.80      36.58      17.41
C       1.79      35.90      16.20
C       2.11       8.67      15.09
C       2.80       9.88      15.21
C       2.79      10.58      16.41
C       2.11      10.07      17.54
C       2.16      10.84       2.80
C       2.13      12.24       2.82
C       2.09      12.96       4.02
C       2.09      12.24       5.23
C       2.11      10.84       5.24
C       2.14      10.15       4.02
C       2.74      16.56       3.02
C       2.74      15.16       3.02
C       2.08      14.44       4.03
C       1.42      15.15       5.04
C       1.41      16.54       5.05
C       2.07      17.25       4.04
C       1.55      10.62       0.37
C       1.77      23.73      23.23
C       2.45      22.51      23.14
C       2.89       8.18       0.20
C       2.86       8.88       1.40
C       2.19      10.11       1.51
C       2.77       8.86       6.64
C       2.79       8.17       7.84
C       2.11       8.68       8.96
C       1.42       9.90       8.85
C       1.44      10.60       7.65
C       2.11      10.09       6.52
C       2.34      24.69      10.81
C       2.38      24.00      12.03
C       2.44      24.69      13.25
C       2.47      26.09      13.23
C       2.44      26.81      12.03
C       2.38      26.09      10.82
C       1.81      22.03      15.87
C       1.81      22.72      14.66
C       2.46      23.95      14.53
C       3.13      24.47      15.65
C       3.14      23.79      16.86
C       2.48      22.56      16.98
C       2.88      22.71       9.37
C       2.82      22.02       8.16
C       2.13      22.58       7.07
C       1.50      23.82       7.22
C       1.57      24.50       8.43
C       2.26      23.96       9.52
C       1.79      29.01      11.02
C       1.79      30.40      11.03
C       2.48      31.10      12.02
C       3.16      30.39      13.02
C       3.13      29.00      13.03
C       2.46      28.29      12.03
O       1.17       8.18      11.07
O       1.54      33.18      11.39
O       1.53      34.83      13.60
O       3.06       7.10      10.44
O       3.06       8.18      12.98
O       3.42      33.18      12.65
O       1.54      22.05      19.10
O       1.54      19.31      19.40
O       1.53      20.93      21.63
O       3.43      20.99      18.47
O       3.43      22.01      21.04
O       3.43      19.27      20.64
O       1.12      21.04       5.58
O       1.12      22.06       3.01
O       1.12      19.33       3.41
O       3.01      22.09       4.93
O       3.01      19.34       4.64
O       3.01      20.98       2.41
