124

Al       6.00       5.43       9.21
Al       2.66       5.46       9.21
Al       2.50       0.00       0.01
Al       5.85      10.88      18.41
H       2.85       6.61      13.35
H       6.19       4.27       5.07
H       2.76       7.87      15.49
H       6.10       3.01       2.93
H       4.34       8.81      14.61
H       1.00       2.07       3.81
H       5.18       9.26      11.69
H       1.84       1.62       6.73
H       2.80       9.22       7.42
H       6.14       1.67      11.00
H       5.61      13.32       1.72
H       2.27      -2.43      16.70
H       4.60      11.17       2.48
H       1.25      -0.29      15.94
H       4.65       9.19       3.91
H       1.31       1.69      14.51
H       3.86      13.26       5.07
H       0.51      -2.37      13.35
H       2.77      14.53       3.23
H       6.11      -3.65      15.19
H       5.44      11.34      13.25
H       3.74      11.00      13.66
H       4.94      11.21      14.95
H       2.10      -0.45       5.17
H       0.40      -0.11       4.76
H       1.60      -0.32       3.47
H       4.41       7.79      12.35
H       1.07       3.09       6.07
H       5.88       6.51       5.95
H       4.62       7.71       6.20
H       5.20       7.37       4.56
H       2.53       4.38      12.47
H       1.28       3.18      12.22
H       1.86       3.52      13.86
H       3.87      11.31       6.59
H       0.53      -0.42      11.82
H       4.35       7.03       9.94
H       1.01       3.85       8.48
H       4.17      15.40       0.10
H       0.83      -4.51      18.32
C       4.33       3.54      10.71
C       0.98       7.35       7.71
C       4.33       4.27       7.09
C       0.98       6.61      11.33
C       6.52       8.09      13.00
C       3.18       2.79       5.42
C       0.93       7.31      12.64
C       4.28       3.57       5.78
C       1.98       7.24      13.58
C       5.33       3.64       4.84
C       1.94       7.95      14.78
C       5.28       2.93       3.64
C       0.84       8.77      15.12
C       4.18       2.11       3.30
C       6.47       8.79      14.21
C       3.12       2.09       4.21
C       5.06       9.31      13.94
C       1.72       1.57       4.48
C       5.16       8.57      12.55
C       1.82       2.31       5.87
C       6.57       8.54       5.74
C       3.23       2.34      12.68
C       0.95       8.43       6.67
C       4.29       2.45      11.75
C       1.99       9.37       6.70
C       5.33       1.52      11.71
C       2.00      10.48       5.86
C       5.34       0.40      12.56
C       0.92      10.64       4.94
C       4.26       0.24      13.48
C       6.55       9.67       4.88
C       3.21       1.21      13.54
C       3.05      11.45       5.89
C       6.39      -0.57      12.53
C       3.04      12.53       5.05
C       6.38      -1.65      13.37
C       1.97      12.73       4.12
C       5.31      -1.85      14.30
C       0.89      11.78       4.09
C       4.24      -0.90      14.33
C       6.48      11.99       3.19
C       3.14      -1.10      15.23
C       5.44      11.01       3.15
C       2.10      -0.12      15.27
C       5.48       9.90       3.95
C       2.14       0.99      14.47
C       1.94      13.82       3.24
C       5.28      -2.94      15.18
C       0.85      14.03       2.39
C       4.19      -3.15      16.03
C       6.46      13.13       2.38
C       3.12      -2.25      16.04
C       4.18       1.32       2.04
C       0.83       9.56      16.38
C       4.18      -4.33      16.93
C       0.84      15.22       1.49
C       4.78      10.80      13.95
C       1.44       0.08       4.47
C       5.51       7.48       5.60
C       2.17       3.41      12.82
O       3.20       4.53       7.63
O       6.54       6.36      10.79
O       5.47       3.93      10.31
O       2.13       6.95       8.11
O       5.47       4.54       7.58
O       2.13       6.34      10.83
O       6.55       6.93       8.14
O       3.20       3.95      10.27
O       4.34       6.24       9.39
O       0.99       4.65       9.02
O       5.31      -4.82      17.25
O       1.97      15.71       1.17
O       3.03       0.99       1.58
O       6.38       9.89      16.84
O       3.04      -4.78      17.32
O       6.39      15.66       1.10
O       1.97       9.83      16.90
O       5.31       1.05       1.52
O       4.18      10.09      18.30
O       0.83       0.80       0.12
