156

Al       1.87      16.33       6.36
Al       4.59       1.98      19.07
Al       5.22      16.29       6.36
Al       1.23       1.89      19.10
H       4.62       4.28      15.30
H       2.11      14.09       9.96
H       1.26      -0.40      22.87
H       5.46      18.53       2.76
H       1.82       7.31      15.49
H       5.09      10.80       9.93
H       5.17      -3.44      22.67
H       1.74      21.82       2.79
H       0.63       9.49      15.09
H       6.38       8.74      10.27
H       4.00      17.88      23.07
H       3.01       0.38       2.45
H       0.77      11.38      13.50
H       6.25       6.85      11.86
H       4.13      15.99      24.66
H       2.89       2.27       0.86
H       1.00       9.46       0.38
H       5.56       8.57      25.19
H       4.30      -0.34      12.33
H       2.24      18.77      13.00
H       5.58      10.49       1.95
H       0.98       7.54      23.62
H       2.16      -1.40      10.79
H       4.38      19.83      14.55
H       2.30      11.99       0.56
H       4.26       6.05      25.01
H       5.66      20.65      12.14
H       0.89      -2.23      13.20
H       3.08       7.54      13.05
H       4.03      12.85      12.44
H       6.43      -3.67      25.11
H       0.68      19.77       0.29
H       3.66       4.32      17.31
H       4.64      12.59       6.09
H       0.30      -0.45      20.86
H       1.29      20.03       6.63
H       3.48      14.73       7.05
H       2.85       3.63      19.59
H       0.12      17.90       5.66
H       6.20       0.25      18.58
C       3.55      17.94       8.15
C       2.93       0.49      17.16
C       0.20      14.68       4.57
C       6.28       3.38      21.00
C       3.57      17.92       4.58
C       2.95       0.19      20.79
C       0.22      14.70       8.14
C       6.30       3.68      17.37
C       5.46       4.96      15.38
C       1.28      13.37       9.97
C       2.10      -1.09      22.79
C       4.64      19.25       2.75
C       5.53       6.04      14.50
C       1.33      12.26      10.82
C       2.17      -2.17      23.66
C       4.69      20.36       1.90
C       6.63       6.92      14.55
C       0.27      11.33      10.83
C       3.27      -3.05      23.61
C       3.63      21.29       1.89
C       0.93       6.67      15.49
C       5.93      11.51       9.92
C       4.28      -2.80      22.67
C       2.57      21.12       2.80
C       0.85       5.61      16.39
C       5.92      12.57       9.02
C       4.20      -1.74      21.78
C       2.57      20.05       3.70
C       6.44       4.76      16.35
C       0.23      13.54       9.07
C       3.08      -0.89      21.81
C       3.59      19.09       3.65
C       0.44       9.32      14.03
C       6.58       8.91      11.33
C       3.80      18.05      24.13
C       3.21       0.21       1.39
C       0.51      10.38      13.14
C       6.51       7.85      12.23
C       3.87      16.99      25.03
C       3.14       1.28       0.49
C       0.23      10.19      11.77
C       0.06       8.04      13.59
C       3.59      22.43       0.95
C       3.41      -4.17      24.57
C       6.04      10.99       1.10
C       0.52       7.04      24.47
C       2.65      -1.89      11.64
C       3.90      20.32      13.69
C       0.53      10.44       0.25
C       6.03       7.60      25.32
C       3.84      -1.32      12.46
C       2.70      19.75      12.87
C       6.30       4.19      22.19
C       0.20      13.85       3.40
C       2.95      -0.32      15.98
C       3.55      18.77       9.33
C       5.31       6.21      25.25
C       1.25      11.83       0.33
C       1.94      -2.37      12.95
C       4.60      20.80      12.38
C       6.49       5.64      24.37
C       0.06      12.40       1.20
C       3.13      -1.78      13.80
C       3.42      20.21      11.53
C       6.38       4.86      23.20
C       0.16      13.17       2.38
C       3.02      -1.00      14.97
C       3.51      19.43      10.35
C       4.35       6.23      13.60
C       2.60      11.99      11.55
C       0.99      -2.36      24.56
C       5.96      20.63       1.17
C       1.99       5.34      17.34
C       4.85      12.66       7.98
C       5.34      -1.47      20.83
C       1.50      19.97       4.74
O       4.69      17.43       4.92
O       1.77       0.53      20.41
O       1.34      15.19       7.80
O       5.12       3.35      17.75
O       2.41      17.64       7.68
O       4.06       0.89      17.59
O       5.76      14.98       5.04
O       0.70       2.99      20.57
O       2.43      17.52       4.97
O       4.03       0.67      20.34
O       5.79      15.11       7.75
O       0.67       3.20      17.82
O       1.34      15.03       5.04
O       5.14       3.12      20.49
O       4.69      17.60       7.68
O       1.79       0.75      17.68
O       3.53      15.49       6.45
O       2.90       2.76      19.15
O       0.18      17.13       6.27
O       6.25       1.11      19.02
O       3.85       5.35      12.91
O       3.83       7.49      13.68
O       3.14      10.90      11.63
O       3.16      13.12      12.07
O       0.49      -1.48      25.25
O       0.47      -3.62      24.49
O       6.50      21.72       1.09
O       6.52      19.49       0.65
O       2.05       5.73      18.50
O       2.94       4.65      16.70
O       3.67      12.89       8.20
O       5.35      12.40       6.74
O       5.41      -1.86      19.67
O       6.29      -0.77      21.47
O       0.32      19.73       4.52
O       1.99      20.22       5.97
