214

Zn       9.69       9.68      33.31
Zn       9.69      11.94       1.15
Zn      11.92      11.94      33.31
Zn      11.92       9.68       1.15
Zn      11.94      11.92      18.38
Zn       9.68      11.92      16.08
Zn       9.68       9.69      18.38
Zn      11.94       9.69      16.08
H       9.27       9.31      29.23
H       8.39       8.40      27.08
H      12.35      12.30      29.23
H      13.22      13.21      27.08
H      12.30      12.35      22.45
H      13.21      13.22      24.60
H       9.31       9.27      22.45
H       8.40       8.39      24.60
H       9.27      12.30       5.22
H       8.39      13.21       7.38
H      12.35       9.31       5.22
H      13.22       8.40       7.38
H      12.30       9.27      12.01
H      13.21       8.39       9.85
H       9.31      12.35      12.01
H       8.40      13.22       9.85
C       7.25      10.81      34.46
C      10.81      14.38      34.46
C      10.81      10.81      30.85
C      14.36      10.81       0.00
C      10.81       7.24      34.46
C      10.81      10.81       3.61
C      10.81      14.36      17.23
C       7.24      10.81      17.23
C      10.81      10.81      20.84
C      10.81       7.25      17.23
C      14.38      10.81      17.23
C      10.81      10.81      13.62
C      10.81      15.88       0.00
C      11.91      16.61      33.98
C      11.90      18.00      33.98
C       9.71      16.61       0.48
C       9.71      18.00       0.48
C      10.81      18.72       0.00
C      10.81      20.20       0.00
C      10.80      20.92       1.20
C      10.81      20.92      33.26
C      10.81       5.74      34.46
C       9.71       5.01      33.98
C       9.71       3.62      33.98
C      11.91       5.01       0.48
C      11.90       3.62       0.48
C      10.81       2.89       0.00
C      10.81       1.42       0.00
C      10.80       0.70      33.26
C      10.81       0.70       1.20
C       9.94       9.96      28.67
C       9.93       9.94      27.27
C       9.06       9.07      26.52
C      11.68      11.66      28.67
C      11.69      11.68      27.27
C      12.56      12.55      26.52
C      11.66      11.68      23.02
C      11.68      11.69      24.42
C      12.55      12.56      25.16
C       9.96       9.94      23.02
C       9.94       9.93      24.42
C       9.06       9.06      25.16
C      10.81      10.81      29.36
C      10.81      10.81      26.55
C      10.81      10.81      22.32
C      10.81      10.81      25.13
C       9.94      11.66       5.79
C       9.93      11.68       7.19
C       9.06      12.55       7.93
C      11.68       9.96       5.79
C      11.69       9.94       7.19
C      12.56       9.06       7.93
C      11.66       9.94      11.44
C      11.68       9.93      10.04
C      12.55       9.06       9.30
C       9.96      11.68      11.44
C       9.94      11.69      10.04
C       9.06      12.56       9.30
C      10.81      10.81       5.10
C      10.81      10.81       7.90
C      10.81      10.81      12.13
C      10.81      10.81       9.32
C      15.86      10.81       0.00
C      16.59      11.29      33.36
C      17.99      11.29      33.36
C      16.59      10.33       1.10
C      17.99      10.33       1.09
C      18.71      10.81      34.46
C      20.19      10.81      34.46
C      20.92       9.61       0.01
C      20.92      12.00      34.45
C       5.75      10.81      34.46
C       5.02      11.29       1.10
C       3.63      11.29       1.09
C       5.02      10.33      33.36
C       3.63      10.33      33.36
C       2.90      10.81       0.00
C       1.42      10.81       0.00
C       0.70      12.00       0.01
C       0.70       9.61      34.45
C       5.74      10.81      17.23
C       5.01       9.71      17.71
C       3.62       9.71      17.71
C       5.01      11.91      16.75
C       3.62      11.90      16.75
C       2.89      10.81      17.23
C       1.42      10.81      17.23
C       0.70      10.81      16.03
C       0.70      10.80      18.43
C      15.88      10.81      17.23
C      16.61      11.91      17.71
C      18.00      11.90      17.71
C      16.61       9.71      16.75
C      18.00       9.71      16.75
C      18.72      10.81      17.23
C      20.20      10.81      17.23
C      20.92      10.81      18.43
C      20.92      10.80      16.03
C      10.81       5.75      17.23
C      10.33       5.02      18.33
C      10.33       3.63      18.32
C      11.29       5.02      16.13
C      11.29       3.63      16.13
C      10.81       2.90      17.23
C      10.81       1.42      17.23
C      12.00       0.70      17.22
C       9.61       0.70      17.23
C      10.81      15.86      17.23
C      10.33      16.59      16.13
C      10.33      17.99      16.13
C      11.29      16.59      18.32
C      11.29      17.99      18.32
C      10.81      18.71      17.23
C      10.81      20.19      17.23
C       9.61      20.92      17.22
C      12.00      20.92      17.23
O      10.81      10.81       0.00
O       7.82       9.80      33.92
O      10.27      13.82       1.00
O      11.76      11.43      31.43
O       7.82      11.81       0.54
O       9.85      10.19      31.43
O      11.35      13.82      33.45
O      13.80      11.81      33.92
O      11.35       7.80       1.00
O      13.80       9.80       0.54
O      10.27       7.80      33.45
O       9.85      11.43       3.03
O      11.76      10.19       3.03
O      10.81      10.81      17.23
O      11.81      13.80      17.77
O       7.80      11.35      16.22
O      10.19       9.85      20.25
O       9.80      13.80      16.69
O      11.43      11.76      20.25
O       7.80      10.27      18.23
O       9.80       7.82      17.77
O      13.82      10.27      16.22
O      11.81       7.82      16.69
O      13.82      11.35      18.23
O      10.19      11.76      14.20
O      11.43       9.85      14.20
F       8.60      15.98       0.91
F       8.62      18.66       0.92
F      13.02      15.98      33.54
F      13.00      18.66      33.53
F      10.80      20.26       2.38
F      10.81       1.35       2.38
F      10.81      20.26      32.08
F      10.80       1.35      32.08
F      13.00       2.96       0.92
F      13.02       5.64       0.91
F       8.62       2.96      33.53
F       8.60       5.64      33.54
F      15.97       9.89       2.21
F      18.64       9.88       2.19
F      15.97      11.73      32.25
F      18.64      11.74      32.27
F      20.26       8.43       0.00
F       1.35       8.43      34.45
F      20.26      13.18      34.45
F       1.35      13.18       0.00
F       2.97       9.88      32.27
F       5.65       9.89      32.25
F       2.97      11.74       2.19
F       5.65      11.73       2.21
F       5.64      13.02      16.31
F       2.96      13.00      16.30
F       5.64       8.60      18.14
F       2.96       8.62      18.15
F       1.35      10.81      14.85
F      20.26      10.80      14.85
F       1.35      10.80      19.60
F      20.26      10.81      19.60
F      18.66       8.62      16.30
F      15.98       8.60      16.31
F      18.66      13.00      18.15
F      15.98      13.02      18.14
F      11.73       5.65      15.02
F      11.74       2.97      15.04
F       9.89       5.65      19.43
F       9.88       2.97      19.41
F      13.18       1.35      17.22
F      13.18      20.26      17.23
F       8.43       1.35      17.23
F       8.43      20.26      17.22
F      11.74      18.64      19.41
F      11.73      15.97      19.43
F       9.88      18.64      15.04
F       9.89      15.97      15.02
