153

Zn       0.23      15.98       1.94
Zn       0.33      24.71      14.46
Zn      10.93      11.56      14.43
Zn       7.77      11.54      14.41
Zn       0.08       5.35       5.55
Zn       7.87      20.36       8.16
Zn       0.20       7.15       8.19
Zn      -7.29      20.35       8.17
H       1.89      18.99       6.46
H      11.49      14.88      11.99
H       0.08      17.77       7.67
H      11.54      16.89      10.53
H       6.35      17.58      11.45
H       6.23      15.43      12.76
H       6.20      14.51      11.23
H      -2.34      22.59      12.08
H      -4.12      21.54      10.70
H       1.92       9.92      11.42
H       4.59      11.39      11.03
H       0.90      14.74      14.71
H      -2.18      17.56       6.65
H       3.80      11.10      12.60
H      13.58      10.44      11.39
H       4.04      21.69      13.71
H       8.18       3.76       3.20
H      -1.77       8.14       2.72
H      -1.91      10.22       1.30
H      10.44       3.97       4.21
H      -3.89      19.48       6.03
H       4.22       1.87       1.45
H       2.83       4.08       0.95
H       8.13      17.66       2.58
H       6.34      16.06       9.07
H       3.27      10.58       9.01
H      16.11       9.20       9.28
H       3.68      19.81      11.06
H       1.23      13.73       4.09
H       1.28      10.06       6.84
H       0.48       9.26       0.15
H      13.52       3.45       1.42
H      15.28       4.45       2.86
H       5.56      16.60       6.46
H       4.38      17.75       7.12
H       3.78      15.58       5.01
H       2.58      16.73       5.65
C       6.83       9.15      12.97
C      -3.01      18.58       4.28
C       0.87       2.19       2.96
C      11.77       1.47       2.06
C      -0.31       2.20       2.23
C      -0.35       2.89       1.02
C       0.77       3.58       0.55
C       1.94       3.54       1.31
C       2.03       2.85       2.53
C       4.03      17.64       4.23
C      12.82       2.07       2.92
C       8.39       3.31       4.17
C      13.65       3.10       2.45
C      14.64       3.67       3.25
C      14.84       3.24       4.58
C       0.29      13.01       2.08
C       5.01      18.21       5.04
C       4.73      17.27       6.20
C       3.61      16.63       5.28
C       8.17      15.40      11.67
C       9.34      14.78      12.11
C      10.56      15.35      11.67
C       9.65       3.44       4.75
C      10.59      16.47      10.85
C       9.40      17.11      10.42
C       8.20      16.54      10.86
C       6.68      16.69      10.89
C       9.33      13.58      12.98
C       6.66      15.36      11.75
C       4.68       9.28      11.65
C       5.77       8.54      12.12
C      -3.19      23.18      11.74
C      -4.19      22.60      10.97
C       0.90      18.89       6.01
C      -5.31      23.33      10.53
C       3.67       8.68      10.89
C       2.85       9.97      10.83
C       4.04      10.65      11.62
C       4.12      23.15      12.04
C       2.88      25.13      13.05
C      12.91       8.54      12.14
C      13.71       9.36      11.35
C      14.70       8.85      10.49
C      14.92       7.44      10.39
C      -4.08      19.10       5.02
C       5.09      22.64      11.19
C       4.84      21.22      11.62
C       3.80      21.82      12.66
C      -0.08      10.55       2.51
C       0.38      11.81       2.94
C       0.91      11.89       4.25
C      -2.28      17.46       2.10
C       0.92      10.73       5.11
C       0.39       9.50       4.67
C      -0.07       9.45       3.34
C       3.63       3.22       4.51
C      -0.82       8.58       2.39
C      -0.88       9.84       1.41
C       9.45      18.32       9.57
C       0.31       8.33       5.55
C      15.89       3.86       5.43
C      -6.38      22.70       9.72
C      15.94       6.86       9.50
C      -0.11      18.21       6.69
C       2.62       3.88       5.38
C      -1.38      18.10       6.12
C       3.36       2.78       3.20
C      -1.65      18.64       4.85
C       4.41       2.24       2.46
C       5.71       2.13       2.97
Br      16.57      13.49      15.07
Br       6.43      20.46      12.66
Br       1.98      21.08      12.47
Br       0.18       7.03       1.66
Br      10.20      17.17       4.58
O       0.34      26.58      15.08
O       1.55       7.37       9.58
O       6.94      21.60       9.37
O       6.61      10.34      13.39
O      -6.24      19.73       6.64
O      16.76       7.68       8.92
O       1.71       4.57       4.80
O      16.84       4.47       4.82
O      -6.14      21.54       9.23
O       8.32      18.80       9.23
O       0.68       8.47       6.78
O       0.61      14.14       2.62
O       1.81      16.87       2.67
O      -0.10      12.87       0.88
O      10.47      13.14      13.38
O       2.06      24.32      13.60
O       6.62       1.68       0.85
O      11.92      10.40      13.20
O      -1.42      16.71       2.68
O       5.94      16.71       9.68
O       2.47      10.52       9.57
O      15.42       9.73       9.78
O       8.19      13.07      13.26
O       4.41      20.34      10.68
O       1.40      13.02       4.78
O       1.43      10.92       6.34
O      -0.38       9.73       0.11
O      -1.15      24.43      13.20
O      11.89       1.62       0.79
O       0.14       5.32       7.52
O      10.60      18.79       9.26
O      -0.15       7.25       5.05
O       6.74      19.72       6.69
