168

Zn       6.65      11.75       9.15
Zn      -0.58      -2.25       9.32
Zn      -9.28      12.59      10.78
Zn      15.61      -3.15       7.70
H       5.38      10.50      11.59
H      -0.45      -4.25      13.96
H      12.08      -2.55       7.32
H      -1.87      -0.74      11.88
H      13.69      -1.44       9.50
H      -1.52      -6.25      13.53
H       6.92       9.95       6.67
H       2.80      -2.77       8.48
H       8.30      14.39       4.80
H       1.35      -2.06       6.62
H       5.58      13.69       4.95
H      -7.72      11.33       8.23
H       7.45      -3.12       6.65
H       9.79      -2.84       7.29
H       1.92      11.00       6.33
H      -0.44      10.73       5.70
H      -2.37      10.73       7.30
H      -4.69      10.85       8.13
H      -5.29      14.49       5.92
H      -2.96      14.39       5.11
H      -3.72       2.84       9.44
H      12.88       0.14      11.58
H      11.26       1.98      11.93
H       9.84       6.42       8.51
H      -9.03       7.08      12.75
H      -7.71       5.00      12.97
H       5.55       8.06       2.26
H       6.65       9.14       4.23
H      -0.27      -0.05      14.50
H      -0.60       0.83      16.82
H       3.64      12.23       4.12
H      10.76      14.02       0.61
H       1.91      -1.37       4.47
H       2.80      -0.94       2.19
H     -10.01       9.54      14.21
H      -6.54       9.49      12.38
H       6.44       6.04       9.14
H      -4.07       6.00       8.57
H      10.88       4.03       6.54
H      -3.68      -5.21      15.08
H       8.82      11.78       2.02
H       3.38       6.12      15.85
H       5.27       9.47       8.82
C       6.32      10.94      11.90
C      -2.67       0.19       9.75
C      -0.73      -3.50      13.23
C      12.36      -3.53       7.68
C      -1.45      -1.70      12.17
C       3.90      12.31       8.19
C      14.69      -1.03       9.55
C     -10.98      11.56      12.87
C       7.10      10.69      13.04
C      -4.06       0.23       9.99
C      -1.35      -2.26      13.45
C       3.05      13.23       7.52
C       6.72      10.98       6.39
C       2.14      -3.64       8.55
C      -9.18       9.52      10.57
C       9.07      14.81       5.44
C       0.35      -2.38       6.37
C       8.25       8.62       9.58
C       6.01      12.90       5.54
C      -7.42      12.36       8.42
C       5.96      11.50       5.34
C      -6.31      13.08       7.96
C       9.40       8.27      10.33
C      -8.76      15.09       5.15
C      -0.49      14.02       6.54
C       0.84      14.18       6.91
C       1.73      13.08       6.91
C       1.25      11.86       6.39
C      -0.09      11.70       6.04
C      -1.00      12.76       6.18
C      -3.02      11.54       6.97
C      -4.33      11.61       7.44
C      -5.13      12.73       7.16
C      -4.64      13.67       6.24
C      -3.34      13.61       5.77
C      -2.47      12.60       6.21
C      -5.51       3.70      10.25
C      -4.62       2.64      10.01
C      -4.91       1.34      10.43
C      13.10       1.13      11.19
C      12.20       2.18      11.42
C      -6.74       3.46      10.91
C      10.87       4.90       9.62
C      10.18       6.11       9.49
C       9.96       6.93      10.60
C      -8.82       6.48      11.87
C      -8.10       5.29      11.99
C      11.41       4.53      10.87
C       5.25      10.79       4.29
C       4.07      11.31       3.73
C       3.41      10.66       2.68
C       3.97       9.49       2.12
C       5.13       8.96       2.72
C       5.74       9.56       3.80
C      -2.89      -1.67      16.87
C      -2.68      -2.20      15.59
C      -2.09      -0.62      17.33
C      -1.70      -1.64      14.74
C      -1.00      -0.51      15.17
C      -1.18      -0.01      16.45
C       7.02       9.66      14.07
C     -10.96       9.18      14.62
C     -10.91       8.25      15.65
C       7.06       7.74      16.18
C       5.85       8.12      15.56
C       5.82       9.08      14.54
C      11.13      14.59       1.46
C      10.70      14.27       2.75
C      -7.14      15.63       1.26
C      -8.08      15.07       3.86
C      -7.06      16.01       3.64
C      -6.57      16.27       2.37
C      -8.07       9.98      11.39
C       7.14       7.78       9.14
C      -5.12       5.07       9.83
C      11.00       4.02       8.42
C      -3.53      -3.33      15.07
C       9.90      13.02       2.94
C       4.57       7.56      16.11
C       3.91      10.85       8.30
N       6.94      11.84      11.11
N      -2.30      -0.98       9.21
N      -0.47      -3.66      11.92
N      13.51      -3.71       8.38
N      -0.93      -2.55      11.26
N       4.97      12.97       8.70
N      -3.44      -1.73       9.07
N      -2.47      -5.75      11.71
N       7.17      11.98       7.19
N       1.03      -3.60       9.30
N      -9.90      10.51       9.96
N      -1.77      -2.83       6.71
N      -0.63      -2.36       7.29
N       8.22       9.98       9.37
N       6.74      13.16       6.64
N      -8.19      13.15       9.21
N       3.68       8.90       0.89
N       2.49       8.85       0.44
N       6.87       6.96      17.34
N      -6.84      16.22       0.02
Cl      -1.48       1.37      10.11
Cl      -4.07      -2.38      17.91
Cl       1.98      11.38       2.05
Cl       4.28       9.55      13.91
Cl      -9.37       7.68      16.16
O      -7.91      11.19      11.68
O      -7.23       9.04      11.84
O       6.13       8.17       8.52
O       7.26       6.48       9.47
O      -5.44       6.11      10.38
O      -4.30       5.06       8.73
O      11.19       2.82       8.43
O      10.83       4.71       7.25
O      -4.49      -3.18      14.34
O      -3.09      -4.54      15.49
O       9.85      12.35       3.97
O       9.24      12.64       1.80
O       3.90       8.07      16.99
O       4.22       6.41      15.46
O       3.15      10.03       7.80
O       5.00      10.42       9.06
