166

Y       6.36       3.67      12.30
Y      12.72       7.35      12.30
Y      12.72       7.35       4.10
Y       6.36       3.67       4.10
Cu       6.36       0.00       0.00
Cu       9.54       5.51       0.00
Cu      15.90       5.51      16.40
Cu       9.54       5.51       8.20
Cu       6.36       0.00       8.20
Cu       3.18       5.51       8.20
H      12.42       3.81       2.34
H      13.82       3.28       3.34
H      15.94       8.85       2.34
H      15.70      10.32       3.34
H       9.82       9.38       2.34
H       8.66       8.43       3.34
H       6.67       7.21       2.34
H       5.27       7.74       3.34
H       3.15       2.17       2.34
H       3.39       0.70       3.34
H       9.27       1.64       2.34
H      10.42       2.59       3.34
H       3.46       1.64       5.86
H       2.30       2.59       4.86
H       6.06       7.21       5.86
H       7.46       7.74       4.86
H       9.57       2.17       5.86
H       9.33       0.70       4.86
H      15.63       9.38       5.86
H      16.79       8.43       4.86
H      13.03       3.81       5.86
H      11.63       3.29       4.86
H       9.51       8.85       5.86
H       9.75      10.32       4.86
H       6.67       7.21      14.05
H       5.27       7.74      13.05
H       3.15       2.17      14.05
H       3.39       0.70      13.06
H       9.27       1.64      14.05
H      10.43       2.59      13.05
H      12.42       3.82      14.05
H      13.82       3.28      13.06
H      15.93       8.85      14.05
H      15.69      10.32      13.06
H       9.82       9.38      14.05
H       8.66       8.43      13.05
H      15.63       9.38      10.54
H      16.79       8.43      11.54
H      13.03       3.81      10.54
H      11.63       3.28      11.54
H       9.51       8.85      10.54
H       9.75      10.32      11.54
H       3.46       1.64      10.54
H       2.30       2.59      11.54
H       6.06       7.20      10.54
H       7.46       7.73      11.54
H       9.57       2.17      10.54
H       9.33       0.70      11.54
C       7.77       5.92      10.40
C      12.21       4.16       5.20
C       3.71       3.77      10.40
C      15.74       8.50       5.20
C       7.60       1.32      10.40
C      10.22       9.39       5.20
C      11.31       5.10      10.40
C       6.88       6.86       5.20
C      15.38       7.25      10.40
C       3.34       2.52       5.20
C      11.48       9.70      10.40
C       8.87       1.63       5.20
C      13.97       9.70      14.19
C       3.86       1.63       3.00
C      14.14       5.10      14.19
C       5.85       6.86       3.00
C      10.07       7.25      14.19
C       9.38       2.52       3.00
C       5.12       1.32      14.19
C      15.23       9.39       3.00
C       4.95       5.92      14.19
C      13.24       4.16       3.00
C       9.02       3.77      14.19
C       9.70       8.50       3.00
C      11.31       5.10       6.00
C       6.88       6.86      11.20
C      15.38       7.25       6.00
C       3.34       2.52      11.20
C      11.48       9.70       6.00
C       8.87       1.63      11.20
C       7.77       5.92       6.00
C      12.21       4.16      11.20
C       3.71       3.77       6.00
C      15.74       8.50      11.20
C       7.60       1.32       6.00
C      10.22       9.39      11.20
C       5.12       1.33       2.20
C      15.23       9.39      13.40
C       4.95       5.92       2.20
C      13.24       4.16      13.40
C       9.02       3.77       2.20
C       9.70       8.50      13.40
C      13.97       9.70       2.20
C       3.86       1.63      13.40
C      14.14       5.10       2.20
C       5.85       6.86      13.40
C      10.07       7.25       2.20
C       9.38       2.52      13.40
O       7.74       4.69      10.66
O       8.47       6.50       9.51
O       4.79       4.36      10.66
O       2.86       4.09       9.51
O       6.55       1.97      10.66
O       7.76       0.43       9.51
O      11.34       6.33      10.66
O      10.61       4.52       9.51
O      14.29       6.66      10.66
O      16.23       6.93       9.51
O      12.53       9.05      10.66
O      11.33      10.59       9.51
O      12.92       9.05      13.93
O      14.12      10.59      15.09
O      14.10       6.33      13.93
O      14.84       4.52      15.09
O      11.15       6.66      13.93
O       9.22       6.93      15.09
O       6.17       1.97      13.93
O       4.97       0.43      15.09
O       4.98       4.69      13.93
O       4.25       6.50      15.09
O       7.93       4.36      13.93
O       9.87       4.09      15.09
O      11.35       6.33       5.73
O      10.61       4.52       6.89
O      14.30       6.66       5.73
O      16.23       6.93       6.89
O      12.53       9.05       5.73
O      11.33      10.59       6.89
O       7.74       4.69       5.73
O       8.47       6.50       6.89
O       4.79       4.36       5.73
O       2.86       4.09       6.89
O       6.55       1.97       5.73
O       7.75       0.43       6.89
O       6.17       1.97       2.46
O       4.97       0.43       1.31
O       4.98       4.69       2.46
O       4.25       6.50       1.31
O       7.93       4.36       2.46
O       9.87       4.09       1.31
O      12.92       9.05       2.46
O      14.12      10.59       1.31
O      14.10       6.33       2.46
O      14.84       4.52       1.31
O      11.15       6.66       2.46
O       9.22       6.93       1.31
O      12.72       4.90       4.10
O      14.85       8.57       4.10
O      10.60       8.57       4.10
O       6.36       6.12       4.10
O       4.24       2.45       4.10
O       8.48       2.45       4.10
O       6.36       6.12      12.30
O       4.24       2.45      12.30
O       8.48       2.45      12.30
O      12.72       4.90      12.30
O      14.84       8.57      12.30
O      10.60       8.57      12.30
