198

Cu       1.15       3.75       7.62
Cu       3.10       5.50       5.81
Cu       4.07       2.69       6.99
Cu      -1.74      10.72       1.18
Cu      -1.76       7.60       0.61
Cu      -8.39       0.35      14.41
Cu       3.11      16.38       0.50
Cu      10.74       0.09       2.29
Cu       7.77       0.08       1.11
Cu      -2.57      -2.74       6.93
Cu      14.32      -3.79       7.50
Cu      -3.57      -3.06       9.92
Cu       4.44       9.44      15.14
Cu       6.38       7.00      15.77
Cu       7.37       9.43      13.94
Cu       8.18       9.70       1.77
Cu       1.51       1.45      15.00
Cu       1.52      -1.69      15.59
Cu      13.00       6.30       6.34
Cu      -5.83       6.65       9.33
Cu      11.04       5.60       8.74
Cu       0.72      12.08       9.19
Cu      -2.23      13.10       8.56
Cu       6.34      -3.88      10.40
H      -1.46       5.55       7.57
H       1.18       7.96       5.14
H       4.00      -0.11       8.51
H       0.05       1.39       9.42
H       5.68       6.35       4.17
H       7.02       2.59       5.83
H      -1.68      10.75       4.34
H      -1.77       6.48       3.60
H      -8.28       3.12      12.83
H      -1.71      13.85       0.70
H      11.49      -4.47      15.24
H      11.48      -1.65      11.95
H       5.66      14.51       0.56
H      13.70      -0.89       2.96
H      -8.14       8.48      15.80
H      -5.42       5.23      14.92
H      10.69       2.81       3.93
H       6.69       2.83       2.26
H      10.65      16.04       3.77
H       6.66      14.55       4.51
H      -1.00      -2.01      11.50
H       0.37      -1.66       7.40
H      11.71      -4.64       9.10
H      -5.46      -3.70      12.38
H       8.49      17.82       0.44
H      11.14      14.53       1.36
H      13.94      -6.56      12.27
H       9.96      -6.54      13.97
H     -10.89       5.14      15.69
H      -9.52       8.46      13.28
H       8.26      12.44       3.37
H       1.52       4.60      15.52
H       8.26       4.88       0.98
H       8.20       7.72       4.25
H       1.58       1.44      11.82
H       1.53      -2.81      12.62
H      -4.29       7.29       4.74
H      -2.87       7.71       8.81
H       8.42       4.76       7.12
H      11.13       5.65       3.86
H      -5.87       6.71      12.51
H       9.97       5.25      11.70
H       0.71       9.30       7.67
H      -3.28      10.70       6.75
H       8.93      -3.01      12.06
H       3.66      11.95      10.37
H       1.77      -3.81       8.64
H       4.45      -1.42      11.05
C      -0.63       5.99       7.02
C      -0.58       7.19       6.30
C       0.72       7.22       5.78
C       3.09       0.45       8.62
C       1.92       0.13       9.31
C       1.07       1.22       9.09
C       5.80       5.41       4.69
C       6.91       4.55       4.73
C       6.49       3.49       5.54
C      -1.72       9.74       3.93
C      -1.74       8.51       4.59
C      -1.77       7.57       3.55
C      -8.33       3.25      13.90
C      -8.34       4.42      14.67
C      -8.38       3.96      15.99
C      11.47      -3.60      14.58
C      11.48      -3.54      13.19
C      11.46      -2.16      12.91
C       5.81      15.44       1.10
C       6.93      15.89       1.81
C       6.54      17.14       2.32
C      -7.30       7.80      15.70
C      -7.22       6.59      15.01
C      -5.91       6.14      15.25
C       9.76       2.62       3.41
C       8.58       3.38       3.36
C       7.72       2.63       2.55
C       9.72      15.67       4.18
C       8.56      15.25       3.52
C       7.68      14.91       4.56
C      -0.87      -2.02      10.42
C       0.24      -1.65       9.66
C      -0.17      -1.85       8.33
C      12.54      -4.37       9.75
C      12.60      -4.33      11.15
C      13.90      -3.89      11.42
C       9.31      17.13       0.56
C       9.36      15.91       1.25
C      10.67      15.45       1.03
C      13.01      -6.75      12.81
C      11.84      -5.99      12.86
C      10.98      -6.74      13.68
C     -10.75       6.07      15.14
C      -9.65       6.53      14.43
C     -10.06       7.77      13.91
C       8.22      12.58       2.29
C       8.21      13.76       1.55
C       8.18      13.33       0.21
C       8.23       5.75       1.63
C       8.22       5.82       3.02
C       8.19       7.20       3.29
C       1.55       0.44      12.25
C       1.55      -0.80      11.61
C       1.52      -1.73      12.66
C      -4.14       7.30       5.82
C      -3.02       7.68       6.56
C      -3.42       7.51       7.90
C       9.26       5.01       6.47
C       9.34       5.04       5.08
C      10.64       5.47       4.81
C      -6.80       6.34      12.08
C      -7.98       5.93      12.72
C      -8.84       5.60      11.67
C      -0.22       9.85       7.55
C      -1.38       9.49       6.86
C      -2.26      10.56       7.08
C       9.06      -3.95      11.53
C      10.16      -4.81      11.48
C       9.75      -5.86      10.66
C       2.60      -3.38       9.19
C       2.67      -2.18       9.90
C       3.97      -2.16      10.42
C       1.59      -1.12      10.12
C      -8.29       5.87      14.21
C       8.26       4.70       4.05
C      11.52      -4.67      12.17
C      -1.68       8.22       6.08
C       8.27      15.20       2.03
N       1.40       6.12       6.17
N       0.56       5.36       6.94
N       1.70       2.14       8.32
N       2.95       1.66       8.03
N       5.22       3.70       5.96
N       4.80       4.90       5.44
N      -1.78       8.20       2.36
N      -1.75       9.55       2.59
N      -8.40       2.61      16.01
N      -8.36       2.17      14.72
N      11.44      -1.46      14.06
N      -8.40      -2.35      15.10
N       5.27      17.41       1.94
N       4.82      16.36       1.19
N      -5.25       7.04      16.01
N       0.55      17.39       0.07
N       8.34       1.50       2.13
N       9.61       1.50       2.66
N       8.28      15.10       5.75
N      16.16      -3.14       5.52
N      -1.43      -2.32       8.31
N      -1.87      -2.43       9.61
N      14.57      -3.68      10.27
N      13.72      -3.98       9.23
N      11.34      16.33       0.26
N       3.84       8.05      16.19
N      11.61      -7.86      14.09
N       6.25      10.85      13.56
N     -11.33       8.02      14.30
N       8.08       6.97      15.06
N       8.16      11.98       0.17
N       8.19      11.52       1.46
N       8.18       7.89       2.13
N       8.20       6.99       1.10
N       1.50      -1.08      13.84
N       1.52       0.27      13.59
N      -4.69       7.04       7.94
N      -5.14       6.91       6.65
N      11.30       5.68       5.97
N      10.44       5.40       7.01
N      -8.22       5.79      10.48
N      -6.96       6.26      10.74
N      -1.66      11.49       7.85
N      -0.39      11.05       8.14
N       8.48      -5.65      10.24
N       8.05      -4.46      10.78
N       4.64      -3.27      10.03
N       3.79      -4.03       9.27
