174

Zn      10.81      24.45      13.84
Zn      10.61       1.58      13.88
Zn      12.57      11.38      27.86
Zn      12.65      14.63      27.87
Zn       8.47       0.00      15.71
Zn       6.72      13.08       1.70
Zn       8.25      -0.01      12.45
Zn      10.30      13.03      26.44
H      10.53      21.02      11.49
H      10.35      19.05      17.88
H       8.38      20.07       3.88
H       5.93       7.74       5.79
H       7.94      23.61       9.22
H       7.48       2.72       9.50
H       9.66      10.51      23.28
H       9.87      15.51      23.20
H       2.09      23.95      12.23
H       3.84      10.88      26.20
H      17.09       2.17      15.74
H      11.07       4.58      10.96
H      15.35      15.22       1.75
H      14.83       1.51      14.93
H      13.10      14.56       0.92
H       9.89       4.02      20.93
H      10.07      22.05      20.94
H       8.14      17.08       6.95
H      10.18       7.43       5.21
H      10.26      19.23       9.73
H      10.95       6.27       9.09
H      12.09       6.18      23.67
H      12.37       7.96      25.43
H      12.12      19.92      23.77
H      14.74      24.20      12.35
H      16.48      11.13      26.30
H       9.55       2.27      19.15
H       9.79      23.81      19.16
H       7.81      15.31       5.19
H      10.03       9.08       3.32
H      12.41      18.11      25.51
H       7.70      21.83       7.45
H       7.33       4.43       7.67
H       9.41       8.74      21.50
H       9.63      17.29      21.44
H      10.11       7.04      17.88
C       9.63       2.56      16.51
C       5.65      12.43      27.52
C       3.80       1.21      15.15
C       2.06      14.28       1.15
C       2.42       1.38      15.14
C       0.68      14.44       1.14
C       9.27      22.42      10.43
C       9.29       3.55      10.33
C      11.04       9.34      24.44
C      11.18      16.70      24.44
C       8.46      22.65       9.30
C       9.94      23.54      16.52
C       8.23       3.51       9.40
C      10.20       9.56      23.34
C      10.37      16.47      23.30
C       8.32      21.67       8.33
C       8.14       4.45       8.39
C      10.06       8.59      22.36
C      10.24      17.45      22.33
C       8.99      20.44       8.49
C       9.13       5.45       8.29
C      10.75       7.38      22.48
C       7.91      15.59       2.54
C      10.89      18.69      22.50
C       9.77      20.20       9.63
C      10.20       5.48       9.20
C      11.57       7.14      23.60
C      11.65      18.94      23.66
C       9.44      23.50      11.44
C       9.37       2.51      11.40
C      11.20      10.40      25.47
C      11.33      15.62      25.44
C       9.92      21.19      10.60
C       7.91      10.48       2.51
C      10.27       4.55      10.23
C      11.73       8.12      24.57
C      11.81      17.94      24.61
C       9.89       4.28      19.87
C      10.10      21.80      19.88
C       8.15      17.33       5.89
C       9.23       7.88       4.93
C       9.71       3.31      18.89
C       9.95      22.77      18.90
C       7.97      16.36       4.92
C      16.70       0.54      14.36
C       9.15       8.80       3.89
C      10.06       5.62      19.49
C      10.27      20.46      19.50
C       8.32      18.67       5.51
C       8.07       7.52       5.63
C       9.73       3.65      17.52
C      10.01      22.44      17.53
C       8.00      16.69       3.55
C       7.93       9.41       3.56
C       9.89       5.01      17.15
C      14.97      13.60       0.36
C      10.17      21.09      17.15
C       8.16      18.04       3.17
C       6.75       9.03       4.25
C      10.02       5.99      18.14
C      10.26      20.10      18.15
C       8.29      19.02       4.16
C       6.83       8.07       5.26
C       5.90       0.08      14.27
C       4.17      13.17       0.26
C      13.31      26.03      13.72
C       2.48      25.61      13.57
C      15.05      12.97      27.66
C       4.40       0.21      14.33
C       2.67      13.29       0.32
C      14.80      25.93      13.65
C      16.54      12.86      27.60
C      16.76      24.74      12.83
C      18.50      11.67      26.80
C      15.39      24.88      12.89
C      17.14      11.81      26.85
C      15.29       0.70      14.35
C       4.22      12.54      27.54
C      13.56      13.76       0.35
C       4.49      24.47      12.74
C       6.23      11.41      26.70
C       9.88       5.45      15.79
C      10.19      20.67      15.79
C       8.16      18.47       1.80
C       5.46       9.55       3.93
C       4.59       2.08      15.96
C       2.85      15.17       1.95
C       3.91      25.49      13.55
N       8.90      19.39       7.56
N       6.61      10.53      26.03
N       9.87       5.90      14.71
N      10.19      20.26      14.69
N       8.15      18.92       0.72
N       4.36       9.89       3.72
N       5.20       2.83      16.62
N       3.44      15.94       2.60
N       9.14       6.44       7.28
N      10.66       6.33      21.54
N      10.81      19.74      21.57
N      10.22       6.68      20.41
N      10.41      19.39      20.42
N       8.48      19.74       6.42
N       8.03       6.59       6.69
N       4.88      23.60      12.07
O       9.44      -0.01      14.01
O      12.28      15.73      26.29
O       9.17      24.51      16.79
O       8.99       1.51      16.85
O       7.01      11.37       2.64
O       7.29      14.53       2.89
O       8.45       1.63      11.40
O       8.77      24.57      11.27
O      10.50      14.65      25.37
O      10.57      11.49      25.27
O       6.52       0.06      15.38
O       7.73      13.05       0.02
O       4.78      13.23       1.37
O      12.51       1.05      14.04
O      12.67      24.96      13.46
O      10.78      14.12       0.00
O      14.41      11.90      27.38
O       6.39       0.03      13.10
O       8.43      13.03      27.07
O      10.21       2.77      15.39
O      10.67      23.40      15.49
O       8.50      15.81       1.43
O       8.80      10.41       1.59
O      10.25      23.27      12.40
O      10.35       2.58      12.22
O      11.96      10.14      26.47
