122

Hf      10.15      14.49      16.44
Hf      10.30      14.45       1.85
Hf       0.93       1.18      16.26
Hf       1.00       1.19       1.66
Hf      15.13       1.10       0.02
Hf      -3.94      14.56      18.09
H      11.01      12.56      18.09
H      15.73       0.68       2.95
H       3.10       1.06       0.00
H      15.72       0.86      15.17
H      10.73      14.11       4.43
H       1.95       1.02       4.14
H       2.06       3.61       1.72
H       2.98       2.92      15.56
H       1.40       0.94      13.67
H       9.13      14.30      13.88
H       8.23      12.67      16.42
H       9.44      11.93       2.59
H       1.65       3.72      15.88
H      10.59      13.66      13.95
H       8.19      12.87       2.28
H       0.86       2.18       4.25
H       0.52      15.67       7.79
H       4.81      15.87       7.78
H       4.82      15.93      10.29
H       0.52      15.73      10.30
H      -3.52       9.86       7.77
H      14.80       5.70       7.85
H      14.79       5.75      10.36
H      -3.52       9.91      10.28
C       7.24      15.98      16.01
C      12.70      12.23       2.28
C       7.24      15.80       2.08
C      -4.50      12.43      15.80
C      -2.12      15.87      15.80
C      15.83       3.40       2.13
C      -2.13      15.63       2.28
C      15.81       3.58      16.05
C      13.93       9.03      13.87
C      14.25       7.88      11.94
C      14.60       6.88      13.96
C      13.91       8.85       4.22
C      14.26       7.77       6.19
C      14.61       6.71       4.21
C       1.48      15.87      13.86
C       3.73      15.94      13.91
C       2.65      15.87      11.92
C       1.46      15.63       4.22
C       3.72      15.74       4.16
C       2.64      15.73       6.16
C       1.45      15.73       8.35
C       2.66      15.77       7.64
C       3.88      15.84       8.34
C       3.88      15.87       9.73
C       2.67      15.83      10.44
C       1.45      15.76       9.74
C      13.94       8.96       8.35
C      14.25       7.78       7.67
C      14.56       6.61       8.39
C      14.55       6.64       9.78
C      14.25       7.83      10.47
C      13.94       8.99       9.74
C      15.01       5.55       3.49
C      15.37       4.57       2.85
C      13.52      10.03       3.53
C      -4.06      11.04       2.96
C      14.99       5.74      14.71
C      15.35       4.77      15.35
C      -4.03      11.26      15.09
C      -3.68      10.24      14.53
C      -0.87      15.57       2.99
C       0.21      15.58       3.55
C       4.93      15.78       3.41
C       5.97      15.80       2.78
C      -0.85      15.84      15.11
C       0.22      15.85      14.54
C       4.95      15.98      14.66
C       5.98      16.00      15.29
N      13.90       9.04      12.53
N      14.60       6.76      12.62
N      14.27       7.99      14.65
N      13.89       8.90       5.56
N      14.63       6.63       5.55
N      14.26       7.78       3.48
N       2.59      15.92      14.63
N       3.83      15.92      12.57
N       1.45      15.84      12.52
N       2.57      15.67       3.45
N       3.82      15.78       5.50
N       1.44      15.65       5.56
O       8.03      15.01      15.71
O      13.41       0.75      16.84
O      11.55      12.67       2.62
O      -3.75      12.71       1.39
O       7.98      14.79       2.26
O      13.46       0.68       1.39
O      11.64      12.95      15.39
O      -3.80      12.80      16.79
O       9.19      12.75      16.54
O      10.06      14.47      14.13
O       9.03      12.52       1.92
O      10.19      14.65       3.83
O       9.49      15.25       0.05
O      11.15      13.36       0.06
O       3.04       0.64      15.47
O      -2.30      14.96      16.68
O      -0.22       3.00       2.42
O      15.01       2.89       1.30
O       2.97       0.31       2.70
O      -2.24      14.86       1.27
O      -0.21       3.25      15.86
O      14.94       2.97      16.75
O       2.29       3.06      16.23
O       0.70       1.23      14.28
O       2.31       2.69       1.58
O       1.00       1.25       3.98
O       2.27       0.74      18.04
O      -0.08       1.66      18.07
O      -5.13      15.34      16.62
O      16.10       0.49       2.08
O      16.03       0.56      16.04
O      -5.08      15.24       1.47
