132

Co       4.59      10.83       2.39
Co       4.77      11.02       4.68
Co      14.74       2.93      10.40
Co      14.57       2.74       8.11
H      13.50      10.63       1.97
H      11.31      10.33       0.85
H       8.81      10.32       0.95
H       8.96      11.21       5.15
H      11.18      11.54       6.29
H      13.66      11.56       6.16
H       3.68       2.24       5.30
H       4.01       4.46       6.31
H       4.34       6.92       6.04
H       4.05       6.53       1.77
H       3.73       4.29       0.75
H       3.43       1.81       1.03
H       3.16      12.69       0.47
H       6.64      13.29      11.06
H       8.14       9.25      10.59
H       4.54       8.82       0.05
H       6.17      13.29       9.14
H       5.14      13.11       6.90
H       5.82       9.04       6.73
H       6.87       9.02       8.98
H       5.83       3.14      10.82
H       8.02       3.44      11.94
H      10.52       3.45      11.84
H      10.38       2.55       7.64
H       8.16       2.22       6.50
H       5.67       2.20       6.63
H      15.65      11.53       7.49
H      15.33       9.30       6.48
H      14.99       6.84       6.75
H      15.28       7.23      11.02
H      15.61       9.48      12.04
H      15.90      11.95      11.76
H      16.17       1.08      12.32
H      12.69       0.47       1.73
H      11.19       4.51       2.20
H      14.79       4.95      12.74
H      13.17       0.47       3.65
H      14.20       0.65       5.89
H      13.51       4.72       6.06
H      12.46       4.74       3.81
C      15.21      11.11       3.93
C      13.72      11.09       4.04
C      12.98      10.82       2.90
C      11.57      10.80       2.95
C      10.79      10.52       1.79
C       9.41      10.51       1.84
C       8.75      10.76       3.08
C       9.49      11.02       4.22
C      10.90      11.06       4.19
C      11.69      11.34       5.35
C      13.06      11.35       5.28
C       7.27      10.74       3.17
C       3.35       0.42       3.33
C       3.54       1.89       3.19
C       3.70       2.69       4.31
C       3.87       4.08       4.19
C       4.04       4.92       5.32
C       4.22       6.28       5.17
C       4.22       6.86       3.88
C       4.05       6.07       2.75
C       3.88       4.67       2.88
C       3.71       3.83       1.74
C       3.55       2.47       1.89
C       4.41       8.33       3.73
C       7.82      12.46      12.63
C       7.19      12.41      11.40
C       7.27      11.25      10.61
C       8.01      10.18      11.15
C       8.60      10.30      12.40
C       6.63      11.17       9.28
C       6.11      12.32       8.66
C       5.53      12.23       7.40
C       5.92       9.96       7.31
C       6.51       9.96       8.57
C       4.13       2.66       8.86
C       5.62       2.67       8.75
C       6.36       2.94       9.89
C       7.77       2.97       9.85
C       8.55       3.24      11.00
C       9.92       3.25      10.95
C      10.58       3.01       9.71
C       9.84       2.74       8.57
C       8.43       2.70       8.60
C       7.65       2.43       7.45
C       6.27       2.41       7.51
C      12.07       3.02       9.62
C      15.99      13.34       9.46
C      15.80      11.87       9.60
C      15.63      11.08       8.48
C      15.46       9.68       8.60
C      15.29       8.84       7.47
C      15.12       7.49       7.62
C      15.11       6.90       8.91
C      15.28       7.69      10.04
C      15.46       9.09       9.91
C      15.62       9.93      11.05
C      15.79      11.29      10.90
C      14.93       5.43       9.06
C      11.51       1.31       0.16
C      12.14       1.35       1.39
C      12.06       2.51       2.18
C      11.32       3.58       1.65
C      10.73       3.46       0.39
C      12.70       2.59       3.51
C      13.22       1.45       4.13
C      13.80       1.53       5.39
C      13.41       3.81       5.48
C      12.82       3.80       4.22
N       3.90      10.76       0.34
N       5.44      11.07       6.73
N      15.44       3.00      12.45
N      13.90       2.70       6.06
O       2.57      11.02       2.76
O      15.91      11.21       5.00
O       6.76      10.83       4.34
O       6.57      10.66       2.10
O       4.74      12.84       2.26
O       4.95      13.01       4.50
O       4.56       9.03       4.80
O       4.41       8.84       2.56
O      16.77       2.74      10.03
O       3.43       2.56       7.79
O      12.57       2.93       8.45
O      12.76       3.10      10.69
O      14.59       0.93      10.53
O      14.39       0.75       8.29
O      14.78       4.74       7.99
O      14.93       4.92      10.23
