104

Zn       9.68      12.53       9.28
Zn      11.21      11.68       6.66
Zn       8.93       9.86       7.58
Zn      11.55       9.86       9.37
H      11.93       4.63       1.52
H       7.56       5.25       5.14
H       6.34       3.21       4.64
H      12.26      16.26       9.17
H      10.74       6.07      11.06
H      13.51      17.28      10.31
H      14.98      18.61      11.76
H       8.88       6.64       6.65
H       8.43      12.05       2.94
H       8.80      17.36      14.96
H      12.70      10.40      15.95
H       8.12      11.63       0.50
H      12.37       9.97      13.51
H      10.12      13.59      13.14
H      10.97       6.60       2.58
H       9.62      15.30      13.93
H      17.21       9.92       4.46
H       7.73      12.50      13.86
H       7.31      14.20      13.56
H       6.59      13.35      14.94
H       4.93      13.53      13.07
H       5.33      11.83      13.38
H      14.79       9.88       5.06
H       7.05      11.93      11.52
H       6.60      13.58      11.19
H       3.49      12.35      11.94
H       4.15      10.43       5.02
H      15.76      10.91       9.11
H      17.14      11.58      10.40
H       5.85      11.13       6.62
H      10.61      15.73       5.25
H      10.02       8.10       3.44
C      13.71      10.42       7.48
C       9.71      15.43      15.00
C       9.25      16.58      15.58
C       6.93      11.66       8.86
C       8.99       9.65       0.56
C       9.58       8.64       1.38
C       8.56      10.87       1.15
C       8.71      11.10       2.49
C       9.63       8.86       2.77
C      16.89      10.16       5.47
C      15.16      10.40       7.13
C      11.96      10.85      13.99
C       5.15      12.16      10.55
C       3.79      12.08      10.92
C       2.81      11.64      10.04
C      11.03      14.48       7.59
C       3.12      11.27       8.72
C       4.49      11.35       8.31
C      17.47      10.84       7.76
C      17.86      10.54       6.42
C       3.87      10.65       6.05
C       4.82      11.04       6.95
C      10.69      12.92      13.79
C      16.11      10.72       8.10
C      15.55      10.12       5.80
C       5.48      11.77       9.25
C       6.58       2.80       5.62
C       9.97       7.43       8.94
C      11.41      15.89       7.26
C      10.11       5.45      10.41
C      14.66      19.02      10.80
C      13.83      18.27       9.98
C       8.46       3.91       8.72
C      10.87      13.21      15.16
C       8.88       5.21       8.30
C      12.58      17.95       7.83
C       7.32       3.60       6.53
C       7.79       4.89       6.14
C       8.54       5.66       6.99
C       9.44      10.34       4.77
C      12.09      16.67       8.18
C      11.14      16.37       5.96
C       9.68       5.99       9.20
C      10.95      11.51      11.76
C      11.59      12.26      15.95
C      11.21      11.77      13.21
C       9.23      10.07       3.32
C      12.14      11.10      15.33
C       6.19      12.62      11.55
C       5.74      12.79      13.00
C       6.90      13.23      13.89
C      10.35      14.41      15.78
C      10.11       7.44       0.75
C      10.83       6.46       1.51
C      11.37       5.35       0.92
O      10.36      10.99       8.28
O      10.10      11.40       5.05
O      11.54      10.50      11.24
O       8.96       9.51       5.62
O      10.16      12.31      11.17
O      10.54      14.23       8.74
O      11.06       7.94       9.39
O      12.91      10.73       6.52
O       7.25      10.55       8.30
O      13.38      10.14       8.68
O       7.71      12.63       9.12
O      11.25      13.64       6.65
O       9.05       8.07       8.33
