124

Al       1.98      13.52       4.58
Al       4.65       4.42      13.69
Al       1.34       4.56      13.69
Al       5.29      13.37       4.57
H       1.44       7.94      11.27
H       5.23      10.06       6.99
H       1.90      16.82       7.01
H       4.78       1.08      11.23
H       4.71       1.11      16.10
H       1.88      16.89       2.16
H       5.16      10.03       2.12
H       1.42       7.86      16.13
H       2.39       9.97      10.20
H       4.28       8.01       8.05
H       0.92       0.92       8.11
H       5.76      17.00      10.12
H       5.66      16.97      17.17
H       0.92       1.00       1.09
H       4.18       8.04       1.01
H       2.40       9.88      17.22
H       3.51       5.97       8.80
H       4.50       4.94       9.87
H       3.35       6.07      10.56
H       3.24      11.91       9.41
H       3.29      11.90       7.63
H       2.23      13.02       8.46
H       0.03      15.10       9.30
H       5.63      13.94       8.42
H       0.01      15.07       7.52
H       0.09       2.90       8.90
H       0.01       2.83      10.67
H       1.09       3.98       9.90
H       0.07       2.94       0.29
H       1.09       4.07      17.57
H       0.02       2.95      16.74
H       6.43      14.94      17.91
H       6.59      15.02       1.45
H       5.44      13.89       0.75
H       3.22      11.87      18.01
H       2.22      12.93       0.79
H       3.30      11.78       1.55
H       3.28       6.14       0.19
H       3.31       6.12      16.63
H       4.31       4.99      17.53
H       3.53      11.78       4.06
H       3.09       6.14      13.12
H       6.41       2.83      13.18
H       0.22      15.09       4.01
C       3.69      15.01       6.41
C       2.98       2.88      11.85
C       6.30       6.08      11.83
C       0.37      11.90       6.43
C       0.33      11.83       2.73
C       6.25       6.06      15.52
C       2.94       2.95      15.54
C       3.64      15.04       2.71
C       6.23       7.02      10.67
C       0.44      10.96       7.58
C       3.77      15.96       7.56
C       2.90       1.94      10.69
C       2.87       2.01      16.70
C       3.71      15.98       1.56
C       0.41      10.89       1.57
C       6.17       7.01      16.67
C       1.57       9.98       9.48
C       5.10       8.00       8.78
C       1.75       0.95       8.81
C       4.92      16.96       9.43
C       4.84      16.96      17.89
C       1.74       1.02       0.37
C       5.02       8.00       0.31
C       1.56       9.91      17.93
C       1.54      10.97       8.51
C       5.13       7.01       9.75
C       1.78       1.93       9.79
C       4.90      15.98       8.45
C       4.81      15.96       0.63
C       1.77       2.01      17.63
C       5.04       7.03      17.57
C       1.53      10.88       0.67
C       6.06      10.02       7.70
C       0.61       7.97      10.57
C       3.93       1.03      10.55
C       2.74      16.88       7.70
C       2.71      16.92       1.45
C       3.88       1.07      16.81
C       0.57       7.92      16.81
C       6.01       9.98       1.43
C       6.09       9.01       8.68
C       0.57       8.99       9.59
C       3.90       0.02       9.56
C       2.77      17.89       8.68
C       2.74       0.02       0.47
C       3.85       0.05      17.79
C       0.54       8.93      17.80
C       6.04       8.97       0.45
C       4.07       5.94       9.75
C       2.64      12.00       8.50
C       6.02      14.97       8.42
C       0.69       2.96       9.82
C       0.68       3.05      17.62
C       5.87      14.90       0.63
C       2.63      11.92       0.70
C       3.92       6.02      17.54
O       4.75      14.68       3.24
O       1.85       3.45      15.15
O       5.16       5.55      15.12
O       1.43      12.18       3.27
O       1.47      12.41       6.03
O       5.19       5.73      12.36
O       1.88       3.23      12.38
O       4.78      14.50       6.01
O       2.55      14.81       5.87
O       4.14       3.23      12.25
O       0.83       5.74      12.24
O       5.87      12.10       5.88
O       5.80      12.18       3.13
O       0.76       5.85      14.98
O       4.07       3.15      14.99
O       2.48      14.69       3.12
O       3.61      12.61       4.54
O       3.02       5.32      13.64
O       6.33       3.66      13.66
O       0.29      14.28       4.53
