150

Zn       3.31      21.13      16.41
Zn      20.30      17.10      16.44
Zn      20.22      20.01      14.90
Zn      -2.27       8.29       1.52
H      17.46      16.43       7.43
H       4.37      11.38      12.84
H       8.14      12.84      14.36
H       5.29       9.09      12.76
H      13.63       4.99       2.42
H       5.50      20.28      14.19
H      12.51      11.67       0.36
H       0.85       8.39       2.70
H      15.87       9.12       4.22
H      18.60      19.11      12.10
H      12.41       7.78       2.27
H      16.32      11.88       8.93
H       0.80      12.27       0.79
H      15.91      12.96       2.21
H      19.02      15.24      13.99
H      17.30       6.36       4.27
H       1.94      18.64      12.33
H      -0.55      22.87      13.65
H       5.70      17.03      16.04
H      14.89      15.26       7.25
H      18.88      13.06       9.11
H       3.18      25.41      15.29
H       5.16      21.12       6.05
H       2.59      14.09      13.93
H      13.95      12.67       9.80
H      13.31      14.19       9.12
H      12.84      15.03      11.45
H      11.98      13.50      11.13
H      13.47      13.51      12.12
H       0.84      14.03       7.29
H       0.25      15.59       6.66
H       0.76      14.85       4.31
H       2.22      14.77       5.33
H       7.78      20.61      10.24
H       1.33      13.28       4.92
H       5.17      14.39       3.49
H       4.05      13.00       3.44
H       3.05      13.85       1.32
H       2.96      15.11       2.58
H       4.19      15.21       1.30
H       8.74       7.95       1.69
H       7.26       7.05       2.15
H       8.59       5.78       3.89
H       9.25       5.54       2.25
H       4.15      19.97       8.01
H      10.06       6.66       3.39
H       8.79      21.75       8.29
H       8.07      12.67       2.07
H       5.42       8.73       3.55
H       9.06      10.55      14.26
C       2.25      23.77      15.11
C      17.83      14.08       7.22
C      15.78      14.78       7.68
C      18.00      13.54       8.69
C      15.76      12.01       5.00
C      18.20      16.25      11.34
C      16.57      12.90       8.61
C      17.20      15.42       7.76
C      16.39      13.42       7.13
C      17.38      14.89       9.24
C      15.96      12.66       6.02
C       2.93      15.63      14.98
C      17.86      15.63      10.34
C       5.17      20.35       8.06
C       7.78      21.36       8.23
C      14.57       5.46       2.67
C       4.51      19.91      13.94
C       5.89      20.22       9.27
C       7.04      21.53       7.03
C       7.22      20.71       9.32
C       5.73      21.00       6.97
C       5.28      19.71      10.43
C      15.33       5.32       3.86
C      14.64       3.89       5.94
C      15.00       4.55       4.98
C       4.71      19.44      11.48
C       7.50      11.80       2.41
C       6.00       9.60       3.24
C       8.16      10.61       2.75
C       5.33      10.77       2.81
C       7.38       9.51       3.21
C       6.11      11.89       2.44
C       9.55      10.45       2.54
C       4.04      19.40      12.72
C       3.93      10.73       2.63
C       2.75      10.62       2.34
C      10.70      10.22       2.21
C       7.52      12.02      14.00
C       5.92       9.91      13.10
C      12.68      10.65       0.70
C       0.61       9.29       2.16
C       6.17      12.27      13.65
C       7.23       9.64      13.55
C       5.40      11.20      13.15
C      11.94       9.89       1.63
C       8.04      10.73      13.95
C       5.59      13.53      13.92
C       7.67       8.31      13.69
C       0.85      25.52      13.96
C       5.08      14.55      14.36
C      15.92       9.95       3.52
C      18.78      18.28      12.77
C      12.63       8.65       1.67
C       0.59      11.28       1.18
C      15.94      11.91       2.49
C       1.41      10.43       1.94
C      18.98      16.30      13.74
C      16.45       6.15       3.63
C       2.69      19.07      12.99
C       0.39      23.02      14.18
C       4.71      16.68      15.77
C       1.14      24.20      14.35
C       4.34      15.59      14.95
C      13.80      13.75      10.00
C      12.97      13.96      11.25
C       0.37      14.52       6.42
C      15.78      11.33       3.77
C       1.22      14.34       5.17
C       4.59      13.73       2.82
C       3.64      14.52       1.95
C       8.23       7.42       2.52
C       9.08       6.28       3.04
C      18.62      16.90      12.52
C      15.94      14.24       9.15
N       2.17      22.46      15.37
N      -0.60      10.70       0.97
N      16.18      10.95       1.58
N      19.33      17.24      14.64
N      16.35       6.73       2.41
N       2.40      19.41      14.26
N       1.01      21.99      14.78
N       3.61      17.29      16.23
N      22.13      16.64      15.73
N      15.19       6.29       1.82
N       3.52      19.92      14.84
N      13.69       9.91       0.21
N      -0.59       9.46       1.57
N      16.17       9.75       2.21
N      19.20      18.47      14.03
N      13.66       8.69       0.81
O       3.30      24.49      15.58
O      21.69      14.77      14.39
O      15.07      14.39      10.20
O      -0.92      13.93       6.17
O       5.54      13.05       1.96
O       8.00       8.34       3.61
