153

Zn       1.20       2.79       9.15
Zn       3.06       7.55       9.34
Zn       0.66       5.83       7.65
Zn       3.35       4.84      11.31
H       0.49       1.05       6.32
H       1.43       9.99      10.06
H      -2.19       6.29       8.51
H       2.35       6.05      13.95
H       2.67       9.86      11.93
H      -2.03       1.99       8.97
H       2.79       3.27      14.16
H      -1.06       8.70       6.78
H       8.43      -2.13       8.98
H       7.14      -0.06       9.35
H       3.90      -1.65       7.00
H       5.94       7.05       7.88
H      -3.59      14.78       6.62
H      -1.87      13.43       5.86
H      -1.11      11.11       6.10
H       0.23      11.98      10.11
H       8.26      -4.20       9.86
H      10.40       6.08       6.75
H       8.04       6.54       7.20
H       7.41       2.38       8.17
H       9.78       1.93       7.70
H      11.61       2.37       8.97
H       2.70       4.85       5.46
H      -4.63       2.46       9.60
H      -3.93       5.39       6.52
H      12.31       5.29       5.88
H       3.08       5.67       2.98
H       4.10       5.98       0.73
H      -2.20      -0.19      15.84
H      -1.52       1.17      13.86
H       6.48       7.59       4.80
H       1.82      -0.09      17.34
H       7.51       7.87       2.53
H       5.27       0.65      10.86
H       2.54       1.20      15.33
H       2.96       7.50      15.94
H      15.89      -0.99       3.24
H      -1.72       0.14       5.22
H       0.65      10.43      13.79
H      16.12       2.68       1.01
H       8.79      -7.03      15.97
H      -1.49       3.81       2.97
H       4.58       8.66       6.26
H       2.98       0.88       7.19
H       5.56       3.09       9.61
H      -1.04       4.88       5.01
H      -0.40       1.79      11.63
H      -8.87      16.92       2.52
H      -7.66      15.95       1.66
H       1.49      -0.88       2.15
H     -14.17       9.29      18.25
H      -0.23       0.00       0.57
H       8.14      16.38       0.64
H       2.98       7.33      18.16
C       0.24       2.09       6.17
C       6.28       4.89       8.43
C       3.98       6.70       5.33
C       4.53       0.35       8.74
C       0.46       2.28      12.07
C       0.90       9.46       9.28
C      -1.92       5.25       8.67
C       2.53       6.88      13.27
C       2.67       8.81      12.22
C      -1.84       3.06       8.92
C       2.10       3.01      13.36
C       5.67       6.16       8.44
C      -0.36       8.81       7.60
C       0.99       2.15      13.37
C       0.01       9.96       8.32
C      -2.72       4.10       8.57
C       2.31       8.25      13.46
C       7.43      -2.03       8.55
C       6.71      -0.87       8.76
C       5.40      -0.72       8.25
C       4.91      -1.73       7.41
C       5.64      -2.90       7.20
C       3.05       5.79       5.85
C       6.89      -3.11       7.82
C      -1.42      13.11       6.80
C      -0.99      11.80       6.94
C      -0.41      11.35       8.14
C      -0.21      12.29       9.16
C      -0.63      13.60       9.02
C      -1.28      14.04       7.85
C       9.74       5.26       7.04
C       8.41       5.52       7.31
C       7.56       4.52       7.82
C       4.57       0.88      10.06
C       8.07       3.21       7.87
C       9.41       2.95       7.61
C      10.30       3.99       7.28
C      12.29       3.01       8.41
C      -4.99       3.07       8.77
C      -4.11       3.97       8.14
C      -4.61       4.74       7.08
C      12.67       4.68       6.71
C      11.76       3.85       7.40
C       0.55       1.31      14.47
C       4.01       7.74       6.28
C       1.49       0.92      15.46
C       1.11       0.18      16.56
C      -0.24      -0.20      16.71
C      -1.17       0.12      15.71
C      -0.78       0.88      14.61
C       4.61       6.31       1.63
C       4.05       6.15       2.89
C       5.84       6.99       1.50
C       4.68       6.67       4.04
C       5.95       7.24       3.91
C       3.40       0.96       8.19
C       6.54       7.39       2.66
C      -1.46       2.04       4.22
C      -1.78       2.76       3.04
C      16.27       2.14       1.95
C      15.99       0.76       1.99
C      16.15       0.07       3.20
C      -1.89       0.70       4.30
C       1.89       8.87      17.18
C       2.27       8.35      15.94
C       1.04      10.02      17.17
C       5.49       4.13       9.30
C       1.85       8.88      14.70
C       1.01      10.01      14.72
C       0.64      10.57      15.94
C      -0.52       4.05       5.48
C      -0.66       2.67       5.25
C       2.53       8.30      18.42
C      10.00      17.47       0.43
C      -8.08      16.96       1.76
N       0.86       3.05       6.90
N       1.07       8.12       9.13
N      -0.65       4.92       9.02
N       2.99       6.65      12.02
N       3.08       7.86      11.36
N      -0.62       3.56       9.17
N       2.21       3.57      12.14
N       0.28       7.73       8.09
N      -0.77      -0.81      17.87
N       6.40       7.43       0.29
N      15.81      -0.05       0.85
N       4.61       6.17       9.27
N       9.54      -7.69      18.30
N       2.57       6.26       7.02
N       3.55       1.71      10.29
N       3.15       7.48       7.28
N       2.83       1.77       9.12
N       4.50       4.91       9.80
N       0.37       4.26       6.46
N       1.21       3.12      11.33
