244

Zn      20.22       8.99      16.30
Zn      18.57      10.02      13.78
Zn      18.52      11.74      16.46
Zn      16.97       8.91      16.29
Zn      26.25      15.83      23.03
Zn      27.81      13.07      22.80
Zn      27.92      14.74      25.55
Zn      29.47      15.82      22.92
Zn       9.28       4.91       9.83
Zn      10.86       5.90       7.25
Zn       7.68       5.90       7.20
Zn       9.33       3.12       7.12
Zn      18.63       1.80       0.78
Zn      26.21      16.50       0.57
Zn      10.85      16.43       0.62
Zn       9.34       2.52      29.46
H      26.09      10.51      19.54
H      25.20       9.92      20.97
H      23.42       8.96      19.46
H      24.31       9.55      18.03
H      11.05       6.71      13.55
H      11.93       5.17      13.46
H      13.72       6.12      14.97
H      12.83       7.66      15.05
H       6.64       5.16      13.45
H       7.53       6.71      13.53
H      24.32       7.66      15.04
H      23.43       6.12      14.97
H      14.14      15.81      19.84
H      15.03      15.22      21.26
H      16.81      14.26      19.75
H      15.92      14.86      18.33
H      20.34      18.05      25.75
H      11.94       2.17      25.83
H      23.02      18.64      24.33
H      22.13      17.10      24.25
H      32.30      16.04      30.67
H      31.41      17.58      30.75
H      29.63      16.63      29.24
H      30.52      15.08      29.17
H      22.12      17.05       2.31
H      23.01      16.46       3.73
H      21.23      17.41       5.25
H      11.05       0.58       3.82
H      21.23       4.95       2.61
H      20.34       4.36       4.04
H      22.13       5.31       5.55
H       4.44       5.91       4.12
C      21.14       8.56      13.55
C      18.56      12.97      13.79
C      21.12      11.29      17.87
C      16.00      11.25      17.87
C      18.61       6.85      17.62
C      16.02       8.54      13.55
C      25.28      13.52      21.42
C      27.86      11.80      25.48
C      25.32      16.22      25.76
C      30.43      16.22      25.71
C      27.84      17.92      21.65
C      30.40      13.49      21.39
C      11.83       6.33      10.02
C       9.29       8.01       5.92
C       6.73       6.33      10.01
C       6.75       3.58       5.68
C       9.30       1.93       9.81
C      11.85       3.59       5.70
C      16.03       1.37       2.16
C       9.23      14.37       1.92
C       2.57       1.35       2.17
C      21.14      18.45      29.28
C      27.89       5.46      29.52
C      34.60      18.47      29.25
C      19.71       4.87      18.89
C      17.45       2.49      20.40
C      18.63       5.61      18.42
C      18.53       1.75      20.86
C      17.88       3.63      19.68
C      19.28       3.73      19.61
C      18.58      14.36      11.60
C      18.57      17.95      11.99
C      18.57      14.20      12.98
C      18.58      18.11      10.61
C      18.57      16.58      12.36
C      18.58      15.73      11.24
C      24.22      12.98      20.52
C      22.16      11.88      18.76
C      24.27      11.68      20.00
C      22.10      13.19      19.28
C      23.29      11.16      19.17
C      23.09      13.72      20.12
C      25.10      10.41      19.99
C      23.98       9.81      19.04
C      12.91       6.89      10.89
C      14.98       7.99      12.63
C      12.86       6.79      12.28
C      15.04       8.10      11.23
C      13.85       7.32      13.11
C      14.04       7.57      10.39
C      12.04       6.26      13.44
C      13.16       6.86      14.38
C      24.23       6.89      10.88
C      22.17       8.00      12.63
C      24.28       6.79      12.27
C      22.11       8.10      11.23
C      23.30       7.32      13.11
C      23.10       7.57      10.38
C      25.11       6.26      13.43
C      23.99       6.85      14.37
C      12.87      12.90      20.51
C      14.94      11.79      18.76
C      14.00      13.62      20.12
C      13.81      11.05      19.16
C      14.99      13.09      19.28
C      12.81      11.58      20.00
C      14.70      14.96      20.25
C      15.81      14.36      19.30
C      27.85       9.22      25.80
C      27.87       8.04      29.21
C      27.86      10.54      26.25
C      27.87       6.72      28.76
C      27.86       8.95      28.13
C      27.86       8.31      26.88
C      22.21      17.88      28.41
C      24.28      16.77      26.67
C      22.16      17.97      27.02
C      24.34      16.67      28.08
C      23.15      17.44      26.19
C      23.34      17.20      28.91
C      21.34      18.50      25.86
C      22.46      17.90      24.92
C      33.56      17.91      28.34
C      31.50      16.80      26.59
C      32.43      17.24      28.82
C      32.63      17.48      26.09
C      31.45      16.71      27.98
C      33.62      18.01      26.93
C      31.74      16.78      30.08
C      30.63      16.18      29.14
C      10.39      10.00       4.68
C       8.13      12.38       3.18
C       9.31       9.26       5.14
C       9.21      13.13       2.71
C       8.56      11.24       3.89
C       9.96      11.14       3.96
C      14.99       1.96       3.05
C      12.92       3.06       4.80
C      13.86       1.23       3.45
C      14.05       3.80       4.41
C      12.87       1.76       4.29
C      15.05       3.27       3.57
C      22.45      17.31       3.33
C      12.05       0.49       4.27
C       3.64       1.88       3.06
C       5.71       2.99       4.80
C       3.59       3.19       3.57
C       5.77       1.68       4.29
C       4.58       3.71       4.40
C       4.77       1.14       3.45
C      21.34       4.46       3.59
C       3.88       5.05       4.53
S      17.09       4.92      18.86
S      20.07       2.44      20.42
S      18.57      15.72      13.84
S      18.58      16.59       9.75
S      27.86      10.66      27.99
S      27.86       6.60      27.02
S       7.77       9.95       4.70
S      10.75      12.43       3.15
Br      21.54       5.24      18.65
Br      15.63       2.12      20.63
Br      18.58      13.01      10.29
Br       9.28       1.87      13.31
Br      27.86       8.62      24.02
Br      27.86       8.64      30.99
Br      12.21       9.63       4.91
Br      24.88      12.75       2.94
O      18.58       9.91      15.74
O      21.35       8.39      14.80
O      18.58      11.87      13.15
O      20.12      12.01      17.56
O      20.15       9.15      13.02
O      21.34      10.09      17.48
O      18.54      13.13      15.06
O      16.95      12.07      17.59
O      17.44       7.29      17.32
O      15.89      10.06      17.46
O      19.73       7.37      17.32
O      16.99       9.16      13.02
O      15.83       8.33      14.80
O      27.87      14.87      23.58
O      25.16      14.71      21.85
O      27.82      11.71      24.21
O      26.31      15.61      26.28
O      26.24      12.71      21.68
O      25.11      16.41      24.51
O      27.90      12.87      26.18
O      29.49      15.62      26.33
O      29.01      17.44      21.90
O      30.55      16.38      24.46
O      26.72      17.43      22.00
O      29.40      12.76      21.70
O      30.60      14.70      21.76
O       9.27       4.94       7.87
O      10.87       5.75      10.63
O      10.42       7.52       6.25
O       6.60       6.45       8.75
O      11.96       6.46       8.77
O       7.70       5.76      10.62
O       8.13       7.53       6.19
O       6.55       4.79       6.04
O       9.32       1.76       8.54
O       7.74       2.84       6.01
O       9.29       3.03      10.44
O      11.97       4.80       6.09
O      10.91       2.78       5.99
O      37.13      19.81      31.42
O      17.03       2.09       1.88
O      26.69      14.88       1.60
O       2.67       0.14       1.78
O      15.80       0.18       1.76
O      20.20       2.16       1.89
O      10.40      14.82       1.64
O      21.24      18.27      30.53
O      27.90       4.39      28.83
O      20.20      19.07      28.67
O      27.89       5.55      30.79
O      34.38      18.30      30.50
O      35.60      19.06      28.73
F      21.07      14.02      18.99
F      22.89      14.99      20.53
F      16.06       8.71      10.60
F      14.24       7.75       9.07
F      21.08       8.72      10.61
F      22.90       7.74       9.06
F      13.60       9.78      18.75
F      11.79      10.76      20.29
F      25.36      16.06      28.70
F      23.54      17.03      30.24
F      32.83      17.65      24.77
F      34.65      18.63      26.31
F      14.25       5.07       4.81
F      16.07       4.10       3.28
F       6.79       0.85       4.57
F      14.26      17.29       3.04
