152

Cd       3.81       8.09       5.45
Cd       7.25       9.54      15.87
Cd       7.24       3.66       5.45
Cd       3.81      13.98      15.87
H       1.83      10.21       4.69
H       5.26       7.43      16.62
H       5.26       1.55       4.69
H       8.70      16.09      16.63
H       3.26      10.84       4.75
H       6.69       6.80      16.56
H       6.69      12.68       4.75
H       3.26       4.96      16.56
H       7.23      13.39      19.62
H       3.82       4.24       1.70
H       3.79      10.12      19.62
H       0.39       7.53       1.70
H       7.83       9.40      21.18
H       4.42       8.23       0.13
H       4.40      14.12      21.19
H       0.98       3.53       0.13
H       3.87       4.27       7.97
H       7.31      13.37      13.35
H       7.30       7.48       7.96
H       3.87      10.16      13.35
H       5.32       4.92       8.79
H       8.76      12.71      12.53
H       1.88       6.83       8.78
H       5.32      10.81      12.53
H       7.69       8.57      18.84
H       4.26       9.06       2.48
H       4.26      14.94      18.85
H       0.82       2.70       2.47
H       1.49      11.86       9.14
H       4.93       5.77      12.18
H       4.93      11.65       9.14
H       8.36       5.99      12.17
H       7.15      12.40      17.36
H       3.72       5.23       3.95
H       3.72      11.12      17.37
H       7.16       6.53       3.96
H       5.25      13.35      11.73
H       1.82       4.29       9.59
H       8.69      10.16      11.73
H       5.25       7.47       9.58
H       7.12      11.74      11.26
H       3.69       5.89      10.05
H       3.68      11.77      11.27
H       7.12       5.87      10.05
H       4.52       3.15       9.95
H       7.96      14.49      11.37
H       7.95       8.60       9.95
H       4.52       9.03      11.37
H       6.30       4.55      13.59
H       2.86      13.08       7.73
H       2.86       7.21      13.58
H       6.29      10.44       7.73
H       5.38       5.81      14.48
H       1.94      11.82       6.84
H       8.81       5.95      14.46
H       5.37      11.70       6.84
C       4.11       6.15       0.69
C       7.52      11.48      20.63
C       0.68       5.62       0.69
C       4.09      12.03      20.63
C       6.03       2.52       8.55
C       2.60      15.11      12.77
C       2.60       9.23       8.54
C       6.03       8.41      12.77
C       7.35      12.32      19.52
C       3.94       5.31       1.80
C       3.92      11.20      19.52
C       0.50       6.45       1.81
C       4.24       7.52       0.94
C       7.66      10.11      20.38
C       0.81       4.24       0.94
C       4.23      13.41      20.38
C       3.72       4.18      12.99
C       7.15      13.45       8.33
C       7.15       7.58      12.98
C       3.72      10.07       8.33
C       4.94       4.51       7.84
C       8.38      13.12      13.47
C       1.50       7.24       7.84
C       4.94      10.40      13.47
C       4.17       8.00       2.25
C       7.60       9.64      19.07
C       0.73       3.76       2.25
C       4.16      13.88      19.08
C       7.52      12.53       9.30
C       4.09       5.10      12.01
C       4.08      10.98       9.31
C       7.52       6.66      12.01
C       7.30      11.77      18.24
C       3.87       5.86       3.08
C       3.86      11.75      18.24
C       7.31       5.90       3.08
C       5.05       5.56       6.75
C       8.49      12.08      14.57
C       1.62       6.19       6.75
C       5.05      11.45      14.57
C       6.25      16.05      15.72
C       2.81       1.58       5.60
C       2.81       7.47      15.71
C       6.24      10.17       5.60
C       5.78      13.36      10.77
C       2.35       4.27      10.55
C       2.34      10.15      10.77
C       5.78       7.49      10.54
C       6.82      12.48      10.52
C       3.39       5.16      10.80
C       3.39      11.03      10.52
C       6.82       6.60      10.79
C       5.37      14.26       9.77
C       1.94       3.38      11.54
C       1.93       9.26       9.77
C       5.37       8.38      11.54
C       5.59       4.74      14.41
C       2.15      12.90       6.90
C       9.03       7.02      14.40
C       5.59      10.62       6.90
N       3.98       7.18       3.30
N       7.41      10.45      18.02
N       0.54       4.58       3.30
N       3.98      13.07      18.02
O       2.25      14.30      13.82
O       5.68       3.34       7.50
O       5.68       9.22      13.82
O       2.24       8.42       7.50
O       2.79      10.00       4.50
O       6.23       7.63      16.82
O       6.22       1.75       4.49
O       2.79      15.89      16.82
O       4.37       4.01      14.18
O       7.80      13.62       7.13
O       7.81       7.75      14.17
O       4.37       9.90       7.13
O       8.93      12.38      15.71
O       5.50       5.26       5.61
O       5.50      11.14      15.71
O       2.07       6.49       5.61
O       5.83      15.03      16.33
O       2.39       2.61       4.98
O       9.26       8.49      16.33
O       5.82       9.15       4.98
O       4.61       6.70       7.11
O       8.05      10.93      14.21
O       1.18       5.05       7.11
O       4.61      12.59      14.21
O       7.23       5.01      16.07
O       3.79      12.62       5.25
O       3.80       6.74      16.06
O       7.23      10.90       5.24
