56

Al       0.28      -5.02       8.70
Al       4.06       5.02       2.90
H       3.25       7.54       6.44
H       3.25       0.70       3.31
H       3.25      -3.21      16.36
C       2.31      -5.10      10.74
C       2.32      13.35       7.62
C       2.31      -3.22       7.75
C       2.03       6.76       3.96
C       2.03       3.24       3.88
C       2.03       5.07       0.86
C       1.75      11.78       5.65
C       2.72       8.30       5.88
C       2.33      12.05       6.88
C       2.10       8.05       4.66
C       2.54       9.66       6.24
C       1.85      10.41       5.28
C       1.75      -0.73       7.37
C       2.72       0.81       4.25
C       2.33      -1.93       6.99
C       2.10       1.98       4.64
C       2.54      -0.19       5.24
C       1.85       0.27       6.37
C       1.75      -6.02      13.09
C       2.72      -4.08      15.98
C       2.33      -5.09      12.24
C       2.10      -5.01      16.80
C       2.54      -4.44      14.63
C       1.85      -5.65      14.46
S       3.01      10.64       7.59
S       1.34       9.45       3.96
S       3.01      -1.85       5.42
S       1.34       1.89       6.21
S       3.01      -3.77      13.10
S       1.34      -6.32      15.94
N       1.09      12.77       4.84
N       1.09      -0.52       8.64
N       1.09      -7.22      12.64
O       1.34      -4.00       7.49
O       1.34      -4.49      10.20
O       1.35      13.51       8.42
O       3.28      -3.45       8.53
O       3.29      14.14       7.43
O       3.28      -5.66      10.15
O       1.05       4.46       1.41
O       1.05       6.59       3.16
O       1.05       4.02       4.13
O       2.96       5.71       1.48
O       2.96       3.45       3.02
O       2.96       5.92       4.20
O       0.48      12.34       3.84
O       1.17      13.96       5.19
O       0.48       0.56       8.77
O       1.17      -1.42       9.49
O       0.48      12.22      13.50
O       1.17      12.59      11.43
