128

Zn       6.52       5.63      11.05
Zn       3.73       5.59      11.16
Zn       3.87       5.76      22.17
Zn       6.66       5.70      22.21
H       1.60       4.12       9.63
H       1.35       6.84      14.06
H       1.53       8.19      12.90
H       8.75       8.31      12.67
H       8.57       6.98      13.84
H       7.22       9.78      11.11
H       1.93      10.02      10.19
H       1.93      10.09      11.97
H       2.02       1.52      11.88
H       2.06       1.45      10.10
H       7.07       3.83      19.17
H       7.01       3.70      14.19
H       3.69       6.95      15.36
H       3.70       7.00      17.86
H       2.81       5.51       4.26
H       8.13       4.68       4.22
H       8.05       6.46       4.23
H       8.05       6.42       6.76
H       8.12       4.64       6.71
H       8.40       4.26       1.52
H       8.97       6.80      19.19
H       8.86       8.22      20.28
H       1.65       8.29      20.42
H       1.75       6.87      19.34
H       3.19       9.94      22.07
H       8.02       9.97       0.90
H       8.51      10.13      21.40
H       8.35       1.55      21.45
H       7.82       1.42       0.95
H       7.71       4.22       9.04
H       9.22       3.40       8.68
H       7.60       2.27      11.34
H       8.34       0.73      11.52
H       2.56       5.78       7.83
H       1.72       5.81       6.31
H       2.30       4.38       2.04
H       0.79       3.58       2.47
H       2.74       2.45      21.84
H       1.96       0.90      21.69
C       5.05       8.20      11.10
C       5.24       5.56      13.73
C       5.15       2.99      11.10
C       5.03       5.52       8.44
C       5.33       8.32      22.20
C       5.24       5.70      19.56
C       5.21       3.11      22.14
C       4.94       5.51       2.57
C       0.93       6.27      11.97
C       9.33       4.80      10.17
C       9.29       6.32      11.86
C       1.01       4.76      10.29
C       0.99       7.26      13.11
C       9.14       7.33      12.98
C       5.08       9.69      11.10
C       5.15       1.51      11.08
C       3.92      10.49      11.08
C       6.34       0.71      11.12
C       3.95       0.80      11.05
C       6.30      10.37      11.11
C       2.41      10.48      11.06
C       2.44       0.99      11.02
C       5.27       5.58      18.06
C       6.17       4.70      17.38
C       4.39       6.35      17.32
C       7.05       3.83      18.08
C       7.86       2.96      17.40
C       5.26       5.51      15.23
C       4.38       6.32      15.92
C       6.15       4.65      15.94
C       7.00       3.73      15.27
C       7.84       2.90      15.98
C       4.95       5.49       4.06
C       4.96       5.48       6.96
C       6.14       5.49       4.79
C       3.73       5.50       6.22
C       6.13       5.47       6.18
C       3.76       5.49       4.80
C       7.65       5.55       4.69
C       7.64       5.53       6.27
C       9.44       6.34      21.30
C       0.66       4.88       0.89
C       1.08       6.38      21.38
C       8.98       4.84       0.80
C       9.37       7.26      20.11
C       1.22       7.31      20.19
C       5.32       9.81      22.16
C       5.18       1.63      22.15
C       6.49      10.58      22.21
C       3.97       0.86      22.07
C       6.37       0.90      22.22
C       4.12      10.51      22.10
C       7.60      10.44       0.00
C       7.46       0.95       0.02
N       1.69       5.50      11.18
N       8.58       5.61      10.98
N       8.70       5.63      22.16
N       1.40       5.62       0.00
N       8.70       4.04       9.26
N       7.60       1.28      11.11
N       2.51       5.49       6.86
N       1.30       4.19       1.85
N       2.74       1.45      22.03
N       8.64       1.99      18.20
N       8.79       2.08      15.22
O       6.16       7.60      10.91
O       3.92       7.63      11.29
O       4.10       5.46      13.19
O       6.35       5.73      13.14
O       4.03       3.58      10.93
O       6.26       3.61      11.29
O       6.17       5.31       8.99
O       3.96       5.77       9.09
O       3.78       7.63       0.01
O       6.45       7.74      22.14
O       6.36       5.64      20.16
O       4.10       5.88      20.09
O       6.35       3.67      22.28
O       4.11       3.74      21.99
O       3.81       5.40       1.97
O       6.06       5.65       1.99
O       9.21       2.42      19.21
O       8.62       0.81      17.82
O       8.38       1.55      14.18
O       9.95       2.03      15.65
