244

Zn      22.84      18.52      16.94
Zn      12.79       2.01      14.21
Zn      19.73      18.42      16.71
Zn      12.77       3.77      16.79
Zn      19.63       8.12      23.60
Zn      22.94       8.16      23.74
Zn      21.13       7.24      26.18
Zn      21.38       5.47      23.43
Zn      12.68      14.12      10.05
Zn      12.90      12.30       7.34
Zn      11.14      14.95       7.46
Zn      14.45      15.01       7.60
Zn      22.16       7.72       0.56
Zn      23.71      10.60       0.69
Zn       5.81       7.84       0.80
Zn      10.30      12.75      30.34
C      23.87      18.12      14.25
C      18.95      18.01      14.00
C      21.26      16.44      18.18
C      10.19       3.25      18.07
C      15.13       3.35      18.34
C      12.81       4.90      14.14
C      21.31      10.15      22.34
C      23.56       8.69      26.47
C      18.55       8.56      26.23
C      21.24       4.35      26.12
C      18.96       5.85      22.00
C      23.98       5.92      22.25
C      12.79      11.21      10.02
C      10.49      12.66       5.86
C      10.08      15.39      10.10
C      12.81      17.00       6.20
C      15.11      15.58      10.31
C      15.49      12.77       6.11
C      21.14      10.05       1.95
C       6.64      10.21       2.18
C       4.25       5.75       2.04
C      12.87      11.33      30.35
C      27.42      11.15      30.13
C      29.76      15.62      30.31
C      16.11       3.98      19.29
C      17.97       5.21      21.06
C      15.88       5.29      19.79
C      18.16       3.88      20.63
C      16.83       5.92      20.61
C      17.27       3.30      19.70
C      17.96      17.38      13.06
C      16.09      16.21      11.26
C      16.85      16.65      13.55
C      17.16      16.99      10.77
C      15.96      16.02      12.65
C      18.12      17.52      11.66
C      20.16      14.37      19.35
C      22.42      12.11      20.99
C      21.22      15.16      18.92
C      21.35      11.34      21.45
C      21.99      13.25      20.28
C      20.59      13.29      20.15
C      12.79       6.27      11.90
C      12.64       9.85      12.25
C      12.74       6.11      13.29
C      12.71      10.00      10.87
C      12.73       8.49      12.64
C      12.81       7.63      11.53
C      25.17      17.69      12.02
C      28.33      16.00      12.34
C      25.00      17.68      13.40
C      28.49      15.98      10.96
C      27.09      16.57      12.72
C      26.35      17.02      11.62
C       8.89       5.12      19.37
C       5.73       4.12      20.79
C       9.06       3.85      18.82
C       5.57       5.38      21.36
C       6.97       4.01      20.12
C       7.70       5.20      20.14
C      24.55       9.33      27.41
C      26.43      10.51      29.19
C      24.39       9.20      28.81
C      26.62      10.58      27.79
C      25.29       9.84      29.69
C      25.65      10.06      26.91
C      17.33       9.19      28.47
C      14.18      10.90      28.12
C      17.49       9.17      27.08
C      14.00      10.89      29.50
C      15.36      10.22      27.73
C      16.09       9.76      28.84
C      29.93      19.30      26.50
C      29.79      18.21      29.93
C      29.86      20.63      26.90
C      29.84      16.88      29.53
C      29.77      19.09      28.82
C      29.85      18.41      27.59
C       9.51      12.03       4.90
C       7.64      10.85       3.12
C       8.38      12.76       4.45
C       8.80      10.15       3.50
C       7.41      12.14       3.63
C       9.70      10.71       4.44
C      16.69      10.96       4.65
C      19.85      11.93       3.22
C      16.53      12.22       5.21
C      20.01      10.66       2.68
C      18.66      12.03       3.99
C      17.92      10.84       3.97
C       5.39       1.42       4.86
C       3.14       3.68       3.21
C       4.32       0.65       5.31
C       4.21       4.47       2.78
C       3.57       2.60       4.02
C       4.96       2.56       4.14
S      22.75      14.56      19.48
S      19.82      11.99      20.96
S      12.69       7.63      14.12
S      12.84       8.48      10.04
S      26.31      16.89      14.22
S      27.14      16.69      10.13
S       7.76       2.77      19.22
S       6.91       6.43      21.04
S      16.15       9.89      26.25
S      15.30      10.09      30.33
S      29.73      20.79      28.62
S      29.88      16.70      27.80
S      17.88      13.27       4.88
S      18.70       9.59       3.08
S       2.79       1.30       4.83
S       5.73       3.86       3.34
N      18.75      14.49      19.01
N      23.85      11.82      21.11
N      12.72       5.24      10.87
N      12.41      10.88      13.25
N      24.35      18.36      11.02
N       9.82      15.61      13.37
N       9.72       6.30      19.17
N       4.78       3.02      20.74
N      18.27       8.78      29.50
N      13.36      11.55      27.11
N      30.16      18.78      25.15
N      29.87      18.77      31.27
N      15.74       9.85       4.61
N      20.68      13.10       3.01
N       6.82       1.13       4.98
N      21.19       3.81       2.86
Cl      14.42       6.13      19.45
Cl      19.43       2.90      21.23
Cl      16.60       7.57      20.98
Cl      26.21      19.30      19.04
Cl      16.52      16.53      15.22
Cl      17.30      17.37       9.10
Cl      14.76      14.99      13.31
Cl      19.50      18.28      10.97
Cl      23.15       8.23      29.49
Cl      28.04      11.26      27.11
Cl      24.94       9.80      31.37
Cl      25.82      10.39      25.24
Cl       8.15      14.41       4.84
Cl       9.21       8.64       2.80
Cl      25.43      13.00       3.30
Cl      10.97       9.72       5.01
O      21.31      19.45      16.17
O      24.16      18.26      15.49
O      19.48      19.11      13.65
O      20.20      17.14      18.14
O      22.74      18.28      13.69
O      22.40      16.74      17.68
O      19.18      17.40      15.10
O       9.89       2.15      17.46
O      14.60       4.10      17.46
O      11.32       3.82      18.12
O      23.44      19.63      18.47
O      13.24       3.83      13.62
O      12.45       5.08      15.35
O      21.27       7.26      24.23
O      20.19       9.53      22.33
O      24.03       8.20      25.39
O      19.29       7.67      26.74
O      22.33       9.91      23.05
O      18.58       8.99      25.03
O      22.34       8.67      26.82
O      21.52       5.41      26.78
O      20.18       5.54      21.86
O      20.87       4.27      24.91
O      18.50       6.67      22.86
O      23.97       7.20      22.36
O      23.21       5.10      22.83
O      12.78      14.10       8.09
O      13.17      12.29      10.57
O      11.71      12.31       5.76
O      10.09      15.81       8.89
O      12.51      11.02       8.79
O      10.84      14.52      10.62
O      10.03      13.49       6.72
O      11.69      16.37       6.19
O      15.57      15.09       9.23
O      13.83      16.75       6.91
O      13.88      15.57      10.66
O      14.74      11.94       6.73
O      15.47      14.04       6.22
O       4.27       8.76       0.02
O      20.85       8.98       1.32
O       6.08      10.97       1.32
O       5.39       6.06       1.54
O      22.28      10.61       2.04
O      22.65       6.45       1.99
O       6.42       8.96       2.32
O      13.15      11.44      31.60
O      27.95      12.25      29.77
O      11.75      11.52      29.79
O      27.66      10.55      31.23
O      29.32      15.69      31.50
O      30.11      14.57      29.68
O      17.97      13.93      19.81
O      18.42      15.06      17.96
O      24.59      12.83      21.06
O      24.23      10.65      21.20
O      13.19       5.59       9.76
O      12.17       4.17      11.11
O      12.81      10.60      14.40
O      11.81      11.91      12.93
O      24.43      17.88       9.87
O      15.15       1.82      11.34
O      28.78      15.33      14.48
O      11.03      15.64      13.12
O       9.65       7.15      20.07
O      10.38       6.40      18.13
O      13.84      19.43      20.56
O      23.04       3.25      20.80
O      17.75       8.51      30.60
O      19.48       8.76      29.25
O      13.44      11.06      25.97
O      12.70      12.55      27.42
O      29.75      17.62      24.96
O      30.77      19.48      24.33
O      29.40      19.92      31.39
O      30.42      18.12      32.17
O      16.25       8.73       4.41
O      14.53      10.09       4.71
O      20.61      13.97       3.91
O      21.34      13.20       1.97
O       7.56       2.13       4.90
O      15.73      17.50       5.09
O      20.41       3.26       3.67
O      20.87       4.37       1.81
