124

Y       1.43       2.38      13.99
Y       2.03       8.02       4.84
Y       5.35       3.27       4.84
Y       4.74      -2.38      13.99
H       1.22       3.03       8.91
H       2.24      -2.62       9.92
H       5.56       2.62       9.91
H       4.53       8.27       8.91
H       2.64       0.32       8.50
H       0.82       5.96      10.32
H       4.14       5.33      10.33
H       5.95      -0.32       8.50
H       2.49       2.36      10.86
H       0.97       8.01       7.96
H       4.28       3.29       7.96
H       5.80      -2.36      10.86
H       3.61      -0.51      10.67
H       6.48       5.14       8.16
H       3.16       6.16       8.16
H       0.30       0.51      10.66
H       3.59       2.29      18.31
H       6.50       7.94       0.52
H       3.18       3.36       0.52
H       0.27      -2.29      18.30
H       2.83      -0.61      17.53
H       0.62       5.04       1.30
H       3.94       6.25       1.30
H       6.15       0.61      17.53
H       0.55       5.17      15.09
H       2.91      -0.48       3.73
H       6.22       0.48       3.74
H       3.87       6.12      15.09
H       6.14       4.53      14.05
H       3.95      -1.12       4.77
H       0.63       1.12       4.77
H       2.82       6.76      14.06
H       2.16       5.11      12.75
H       1.30      -0.53       6.08
H       4.62       0.53       6.08
H       5.47       6.18      12.75
H       3.49       4.25      12.80
H       6.60      -1.40       6.03
H       3.29       1.40       6.03
H       0.17       7.04      12.80
H       5.12       1.82      14.37
H       4.97       7.47       4.46
H       1.65       3.82       4.46
H       1.80      -1.82      14.37
H       5.86       0.73      15.20
H       4.23       6.37       3.63
H       0.92       4.92       3.63
H       2.54      -0.73      15.20
C       1.06       2.01       6.99
C       2.39       7.65      11.83
C       5.71       3.64      11.83
C       4.38      -2.01       6.99
C       1.55       2.13       8.38
C       1.91       7.78      10.45
C       5.22       3.51      10.45
C       4.86      -2.13       8.38
C       2.33       1.23       9.02
C       1.13       6.87       9.81
C       4.45       4.42       9.81
C       5.64      -1.23       9.02
C       2.74       1.41      10.39
C       0.72       7.06       8.44
C       4.03       4.24       8.44
C       6.05      -1.41      10.39
C       3.38       0.46      11.10
C       0.08       6.11       7.72
C       3.39       5.19       7.72
C       6.70      -0.46      11.10
C       3.78       0.63      12.52
C       6.30       6.28       6.31
C       2.99       5.02       6.31
C       0.47      -0.63      12.52
C       2.63       1.79      16.40
C       0.82       7.43       2.43
C       4.14       3.86       2.43
C       5.95      -1.79      16.40
C       3.22       1.46      17.71
C       0.24       7.10       1.12
C       3.55       4.19       1.12
C       6.53      -1.45      17.71
C       3.22       0.19      18.17
C       0.23       5.83       0.65
C       3.55       5.46       0.65
C       6.54      -0.18      18.17
O       1.60       1.15       6.19
O       1.85       6.80      12.64
O       5.17       4.49      12.64
O       4.92      -1.15       6.19
O       0.11       2.78       6.66
O       3.34      -2.87      12.17
O       6.66       2.87      12.17
O       3.43       8.52       6.66
O       3.53       1.72      13.14
O       6.56       7.37       5.68
O       3.24       3.92       5.69
O       0.21      -1.73      13.14
O       1.10       0.33      13.05
O       2.36       5.98       5.78
O       5.68       5.32       5.78
O       4.41      -0.33      13.05
O       2.11       0.86      15.68
O       1.35       6.50       3.15
O       4.67       4.79       3.15
O       5.42      -0.86      15.67
O       2.60       3.00      15.98
O       0.85       8.64       2.84
O       4.17       2.65       2.84
O       5.92      -3.00      15.98
O       2.50       4.20      12.92
O       0.96      -1.44       5.90
O       4.27       1.44       5.90
O       5.81       7.09      12.92
O       0.20       4.33      14.74
O       3.25       9.98       4.08
O       6.57       1.32       4.08
O       3.52      -4.33      14.74
O       5.95       1.67      14.88
O       4.14       7.31       3.95
O       0.82       3.98       3.95
O       2.63      -1.67      14.88
