126

Zr      10.79       2.52       6.12
Zr      -2.10       6.00       5.81
Zr      12.46       4.15       3.46
Zr      -3.77       4.37       8.47
Zr      10.81       6.05       5.97
Zr      -2.12       2.46       5.96
H       9.71       4.22       4.11
H      -3.78       7.12       7.82
H      -1.18       4.14       3.88
H      -3.82       1.56       8.05
H      10.26       1.95       0.38
H       8.24       0.04       3.64
H      -1.52       6.52      11.55
H       0.44       8.49       8.28
H       3.16      -7.13      10.65
H       7.71      13.43       1.27
C       8.09       4.34       6.19
C      12.59       8.73       5.73
C       0.60       4.18       5.90
C      -3.90      -0.22       6.02
C      10.17       1.85       3.03
C      -6.10       2.22       9.28
C      -1.41       6.60       8.90
C      14.66       6.43       2.65
C      10.31       6.45       2.75
C      14.57       1.81       2.76
C      -1.48       2.20       9.17
C      -6.02       6.56       9.18
C       2.95       3.13       6.06
C       5.74       5.38       6.12
C       2.06       4.19       5.98
C       6.63       4.32       6.19
C       4.39       4.96       6.08
C       4.30       3.56       6.12
C      11.60      11.11       5.79
C      -2.91      -2.59       5.85
C      12.64      10.20       5.72
C      -3.95      -1.68       5.94
C      -3.00      12.52       5.79
C      12.05      12.45       5.83
C      15.05       1.09       0.33
C      -6.60       7.16      11.62
C      15.23       1.03       1.70
C       9.68       7.25      10.25
C       0.67      15.98       0.48
C       8.12       8.71      11.47
C       9.71       7.03       0.31
C      -0.79       1.70      11.61
C       9.63       7.20       1.69
C      -0.73       1.51      10.23
C       8.19       8.79       0.46
C       0.73      -0.05      11.45
C       9.54       1.20       0.71
C       8.40       0.13       2.56
C       7.65      -0.64       1.69
C       8.19      15.93       0.28
C      -0.75       7.22      11.21
C       0.35       8.34       9.36
C       1.13       9.07      10.23
C       0.64      -7.55      11.64
C       9.36       1.04       2.07
C      -0.58       7.40       9.85
C      -0.12       8.17       1.80
C       8.58       0.58      10.13
C      15.36       7.20       1.61
C      -6.88       1.54      10.32
C       8.06       0.09      11.35
C       0.39       8.68       0.58
C       1.71      -6.38       9.61
C       6.99      14.89       2.31
S       2.86       5.74       5.98
S       5.83       2.77       6.20
S      -2.25      10.97       5.71
S      10.94      -2.45       5.94
S       0.04      -0.09       2.14
S       8.42       8.36       9.81
S       8.54       8.49       2.12
S       0.38       0.23       9.79
S       6.88      -1.08      11.79
S       1.58       9.84       0.14
O       8.66       3.19       6.24
O      -2.73       8.14       5.69
O       0.03       5.33       5.83
O      11.41       0.37       6.10
O      11.01       2.68       2.54
O      -5.20       3.05       9.66
O      -2.26       5.78       9.39
O      13.80       5.56       2.27
O      10.05       6.78       3.95
O      -1.52       1.57       3.96
O      -1.25       1.84       7.97
O      10.10       6.83       7.98
O      13.70       2.67       2.38
O      -2.32       3.09       9.55
O      -5.11       5.75       9.56
O      11.11       5.52       2.37
O       9.95       1.65       4.27
O      -1.46       6.70       3.85
O      -1.21       6.82       7.66
O      10.07       1.89       8.08
O      -2.75       0.34       6.02
O       8.68       5.47       6.13
O      11.44       8.17       5.80
O       0.01       3.04       5.90
O      -3.83       2.33       7.46
O      -1.95       4.16       4.47
O      -3.81       6.31       7.29
O      10.52       4.23       4.64
O      12.53       5.68       4.86
O      11.15       4.33       7.07
O      -2.37       4.28       6.94
O      12.52       2.75       4.99
O       3.02      -6.41      10.00
O       1.36      -5.58       8.76
O       7.00      13.58       1.92
O       5.84      -1.19       3.16
F       2.60       1.84       6.08
F       6.09       6.68       6.09
F      10.29      10.79       5.82
F      -1.61      -2.27       5.83
F       5.98      -6.11      11.57
F       2.46      14.37       0.37
F       2.32      -1.87      11.56
F       6.61      10.60       0.36
F       0.33       8.60       2.99
F       8.14       0.14       8.94
