216

Al       5.03       3.03       6.98
Al       8.24       2.97       6.96
Al       6.89       5.64       7.04
Al      11.83       8.82      21.07
Al      15.04       8.91      21.06
Al      13.72       6.23      21.05
H      10.78       3.81      26.85
H       4.85       7.34      26.61
H       4.99       0.51      26.72
H      16.96       7.99       1.44
H      12.20       5.40       1.62
H      12.53      10.71       1.42
H      12.82       6.39      14.00
H      15.67       7.58      14.14
H      13.25       9.57      13.97
H       5.95       5.42      14.22
H       8.73       4.18      13.85
H       6.33       2.17      13.98
H      12.20       4.11      12.62
H      17.96       8.31      12.84
H      11.55      11.29      12.58
H       5.25       7.70      15.52
H      10.97       3.45      15.25
H       4.56       0.45      15.28
H      10.34       3.74       1.06
H       5.47       7.24       0.82
H       5.09       1.09       0.96
H      16.35       8.09      27.24
H      12.62       5.48      27.41
H      12.43      10.14      27.18
H      11.84       7.12       1.70
H      15.67       6.79       1.61
H      14.21      10.17       1.52
H       5.20       5.63      26.35
H       9.14       4.39      26.53
H       6.30       1.67      26.49
H      12.25       7.20      27.49
H      15.06       6.90      27.41
H      14.11       9.60      27.28
H       5.80       5.52       0.56
H       8.71       4.33       0.74
H       6.41       2.24       0.73
H       8.20       6.82       0.87
H       3.95       3.81       0.81
H       8.82       1.46       0.88
H      15.55       4.44      27.04
H       9.90       8.03      27.03
H      16.00      11.27      26.95
H       9.49       7.96       1.25
H      16.17       4.33       1.25
H      16.09      11.83       1.19
H       3.33       3.91      26.61
H       8.62       6.88      26.65
H       8.72       0.89      26.64
H       9.41       6.90      15.01
H       3.26       4.49      15.28
H       8.35       0.23      15.16
H      16.44       4.85      13.06
H      10.16       7.30      12.83
H      15.34      11.52      12.93
H       8.27       5.79      13.28
H       4.88       4.13      13.63
H       7.99       1.80      13.46
H      15.21       5.97      14.72
H      11.71       7.66      14.56
H      14.87       9.93      14.59
H      12.35       5.20      10.77
H      13.51       5.85      11.99
H      13.29       6.67      10.43
H      17.03       7.81      10.97
H      15.79       8.42      12.13
H      15.31       7.75      10.56
H      12.51      10.63      10.75
H      12.51       9.28      11.96
H      13.37       9.11      10.42
H       5.30       6.65      17.42
H       6.54       6.00      16.28
H       6.23       5.20      17.84
H       9.93       3.93      17.10
H       8.79       3.31      15.84
H       8.18       3.94      17.38
H       5.37       1.13      17.15
H       5.44       2.43      15.90
H       6.19       2.68      17.48
H       3.21       1.77       7.73
H      10.02      10.10      20.34
C       6.84       1.49       5.12
C       8.96       5.07       5.17
C       4.91       5.39       5.12
C      13.65      10.41      22.89
C      15.79       6.85      22.90
C      11.74       6.49      22.96
C      10.99       6.57      12.82
C      16.59       5.94      13.03
C      14.30      11.14      12.87
C       4.07       5.23      15.32
C       9.57       5.81      15.03
C       7.31       0.60      15.15
C      11.64       6.16      17.71
C      16.31       6.83      17.88
C      13.51      10.59      17.71
C       4.88       5.60      10.43
C       9.50       5.01      10.17
C       6.74       1.17      10.27
C      10.28       5.16      12.70
C       4.32       6.13      12.97
C       6.48       0.37      12.78
C      17.19       6.64      15.38
C      11.14       5.63      15.15
C      13.33      11.37      15.18
C      11.53       4.21      14.69
C      18.18       7.74      14.93
C      11.90      11.70      14.69
C       4.67       7.57      13.43
C      11.26       4.05      13.18
C       5.03       0.03      13.20
C      11.50       5.90      16.53
C      16.69       6.82      16.72
C      13.36      10.87      16.54
C       4.73       5.85      11.61
C       9.84       5.00      11.34
C       6.57       0.87      11.43
C       6.83       1.60       8.90
C       8.99       4.92       8.84
C       5.07       5.27       9.04
C      13.60      10.21      19.09
C      15.80       6.93      19.21
C      11.85       6.52      19.08
C       9.77       4.56       0.59
C       5.05       6.31       0.41
C       6.09       1.21       0.52
C      16.13       7.07      27.59
C      11.85       6.20      27.72
C      13.43      10.43      27.53
C      11.61       6.20       1.16
C      16.56       7.05       1.03
C      13.52      10.85       0.99
C       4.62       6.33      26.97
C      10.03       4.56      27.15
C       5.99       0.79      27.07
C      11.25       6.19      24.28
C      16.33       6.49      24.18
C      13.76      11.05      24.16
C       4.44       5.70       3.80
C       9.51       5.47       3.91
C       6.94       0.85       3.83
C      10.10       5.88       1.34
C       3.78       5.94       1.22
C       7.06       0.24       1.25
C      16.95       6.06      26.74
C      10.58       5.97      26.86
C      13.88      11.69      26.74
C       9.52       7.02      27.27
C       2.77       4.63      27.22
C       8.39       0.01      27.21
C       3.21       4.61       0.66
C       9.27       7.03       0.71
C       8.48       0.43       0.67
C      10.93       6.09      25.45
C      16.62       6.26      25.34
C      13.84      11.38      25.33
C       4.12       5.81       2.63
C       9.79       5.70       2.75
C       7.03       0.54       2.67
C       9.09       5.20      13.70
C       4.90       5.15      14.02
C       7.06       1.36      13.83
C      16.05       6.57      14.33
C      11.76       6.64      14.15
C      13.97      10.38      14.17
C      12.77       6.11      11.22
C      16.03       7.65      11.38
C      13.10       9.82      11.21
C       5.76       5.74      17.01
C       8.95       4.07      16.62
C       5.99       1.93      16.71
Cl      10.63       2.41      12.82
Cl       6.40       7.97      13.14
Cl       3.91       1.41      12.89
Cl      17.52       9.39      15.23
Cl      13.26       3.84      15.04
Cl      10.77      10.33      14.94
O       4.45       4.34       5.67
O       7.94       1.58       5.79
O       8.31       5.95       5.84
O      11.27       7.52      22.40
O      14.74      10.32      22.20
O      15.16       5.95      22.24
O       5.71       1.94       5.46
O       9.12       3.85       5.51
O       5.79       6.18       5.63
O      12.52       9.94      22.56
O      15.93       8.07      22.53
O      12.64       5.70      22.48
O       4.67       4.14       8.64
O       8.00       1.85       8.45
O       8.15       5.81       8.48
O      11.45       7.65      19.47
O      14.78       9.98      19.55
O      14.97       6.04      19.59
O       5.74       1.72       8.27
O       9.37       3.93       8.12
O       5.66       6.16       8.31
O      12.51      10.09      19.73
O      16.17       7.94      19.91
O      12.48       5.65      19.81
O       6.73       3.88       6.99
O      13.55       7.98      21.06
O      11.75       6.99      11.70
O      15.86       6.32      11.88
O      14.34      10.32      11.72
O       4.78       4.84      16.48
O       8.79       5.41      16.14
O       7.26       1.43      16.29
O       3.43       2.32       6.97
O      10.23       9.53      21.09
