134

Zn       7.40       5.61      11.77
Zn       4.33       5.75      11.98
H       0.52       5.68       1.50
H       7.67      10.84      22.48
H       8.83       4.16       8.34
H       3.00       8.84      13.71
H       8.75       2.85      14.43
H       3.24       8.07       9.28
H      10.96       7.84      22.27
H       9.19       9.49       2.06
H       9.62       6.30      20.01
H       8.37       3.11       4.17
H       2.94       6.89      16.29
H       6.23       8.86       6.12
H       8.06       8.49       8.52
H       4.63       2.87      15.34
H       8.71       0.58      10.21
H       1.88      11.15      10.87
C       5.91       3.13      11.77
C       5.99       8.23      11.84
C       7.21       6.88      17.98
C       5.96       4.70       5.55
C       7.20       6.64      16.59
C       6.03       4.74       6.95
C       6.06       6.10      15.94
C       5.59       5.86       7.68
C       4.97       5.74      16.75
C       5.10       6.97       6.96
C       4.99       5.93      18.14
C       4.87       6.85       5.58
C       6.03       6.67      18.74
C       5.31       5.73       4.87
C       6.91       0.52      11.90
C       4.97      10.83      11.74
C       6.97      10.51      10.76
C       4.92       0.84      12.88
C       6.10       9.73      11.81
C       5.78       1.62      11.82
C       6.82      10.56      12.95
C       5.05       0.80      10.69
C       5.97       5.82      14.46
C       5.68       5.82       9.22
C       1.26       4.39      12.18
C      10.49       6.82      11.70
C      10.56       4.79      10.93
C       1.20       6.41      12.95
C      10.41       5.18      13.09
C       1.33       6.03      10.78
C       6.29       6.52       2.84
C       4.60       7.21      20.74
C       4.10       5.26       2.81
C       6.81       8.00      20.71
C       4.03       5.45       1.35
C       6.87       7.87      22.18
C       5.10       6.10       0.68
C       5.86       7.14      22.86
C       6.22       6.63       1.37
C       4.67       6.82      22.17
C       2.88       5.09       0.65
C       7.91       8.47      22.89
C       3.58       6.32      22.86
C       7.20       7.37       0.70
C       1.81       4.20       1.25
C       8.89       9.38      22.19
C      10.09       3.96       9.77
C       1.59       7.53      13.87
C       9.86       4.43      14.27
C       1.96       6.61       9.55
C       2.19       6.39      22.24
C       8.43       7.89       1.41
C       8.55       7.11      18.64
C       6.62       3.61       4.74
C       3.71       5.13      16.19
C       5.05       8.35       7.56
C       7.71      10.01       9.58
C       4.34       1.41      14.14
C       8.38       0.77      12.13
C       3.48      10.62      11.75
N       5.28       5.75       3.44
N       5.91       7.09      20.09
N       9.55       5.58      11.84
N       2.19       5.64      12.01
Cl       1.87       2.88      12.62
Cl       9.94       8.39      11.39
Cl       8.57       7.10      15.68
Cl       6.71       3.37       7.74
Cl       3.80       5.09      19.06
Cl       4.07       8.12       4.71
Cl       7.39       9.88      14.41
Cl       4.47       1.47       9.21
O       7.05       3.62      11.51
O       4.83       7.72      11.71
O       4.82       3.75      11.94
O       7.09       7.63      11.99
O       7.02       5.55      13.81
O       4.58       5.62       9.81
O       4.78       5.84      13.98
O       6.83       5.96       9.71
O       7.15       7.08       3.51
O       3.62       7.65      20.18
O       3.21       4.77       3.49
O       7.47       8.83      20.10
O       2.03       3.00       1.28
O       0.63       4.71       1.62
O       9.98       9.01      21.77
O       8.58      10.68      22.14
O      10.46       2.83       9.54
O       9.24       4.70       9.05
O      10.85       8.13      14.48
O       2.88       7.84      13.78
O      10.30       4.49      15.40
O       8.96       3.56      13.79
O       1.89       6.12       8.44
O       2.54       7.75       9.93
O       1.68       5.61      21.47
O       1.66       7.51      22.74
O       9.43       7.22       1.61
O       8.34       9.21       1.66
O       9.44       7.86      18.30
O       8.70       6.21      19.68
O       6.04       2.73       4.14
O       7.96       3.81       4.73
O       3.56       3.94      15.95
O       2.66       5.97      16.10
O       4.46       8.70       8.57
O       5.83       9.25       6.92
O       8.55      10.71       8.99
O       7.44       8.75       9.23
O       3.31       1.01      14.65
O       5.14       2.37      14.63
O       8.80       0.97      13.25
O       9.21       0.71      11.07
O       2.88      10.10      12.69
O       2.85      11.15      10.70
