154

Zn       3.95       7.90       8.83
Zn      -2.04      27.87       9.37
Zn      20.04      29.27      11.56
Zn      18.81      28.17       8.83
Zn      20.04       9.69       0.82
Zn       3.95      23.48      17.38
Zn      18.81      12.59       0.28
Zn      -2.04      12.29       0.82
H      27.16      15.85      17.38
H       4.05      17.88      13.68
H      27.16      11.99      15.26
H       4.05      14.02      11.56
H      -1.50      18.09       4.15
H      18.27      18.51       3.38
H      -1.50      21.95       6.26
H      18.27      22.37       5.50
H      14.67       7.42       4.15
H      13.00      11.32       3.38
H      10.99       6.26       6.26
H       9.32      10.16       5.50
H       9.32      25.07      13.68
H      10.99      26.52      17.38
H      13.00      26.23      11.56
H      14.67      27.68      15.26
C       6.65       7.10       7.90
C      22.36      27.57      12.29
C      27.60       9.33      11.39
C      17.34      28.06      11.39
C       1.63       7.60       7.00
C      20.38      25.84       7.90
C       3.61      20.55      17.54
C       1.63      25.18      16.65
C      17.34      10.48       1.75
C      20.38      14.62       1.75
C      22.36       9.99       2.64
C       6.65      24.69      17.55
C       0.80       8.21       5.89
C      -0.80       9.38       3.76
C      23.66       7.53       5.34
C       0.33      10.05       4.30
C      22.88       8.10       4.30
C       1.11       9.48       5.34
C      23.19      26.96      13.40
C       0.80      25.79      15.53
C      22.88      27.19      14.77
C       1.11      25.57      14.16
C      23.66      26.62      15.81
C       0.33      26.14      13.12
C       3.61      19.23      16.82
C      27.35      17.99      17.49
C      27.35      16.77      16.82
C      27.60      16.71      15.44
C       3.86      17.91      14.75
C       3.86      19.13      15.42
C      27.60      15.47      14.76
C      27.60      14.40      14.18
C      27.60      13.16      13.50
C      27.35      11.97      14.19
C      27.35      10.75      13.52
C      27.60      10.65      12.12
C       3.85      11.89      11.45
C       3.86      13.11      12.11
C      -3.61      15.94       2.47
C      -2.43      16.49       3.05
C      -2.43      17.71       3.72
C      -3.61      18.46       3.85
C      19.20      17.95       3.29
C      19.20      16.73       2.62
C      20.38      19.70       4.53
C      20.38      20.77       5.12
C      20.38      22.00       5.80
C      -2.43      22.51       6.35
C      -2.43      23.73       7.02
C      20.38      24.52       7.18
C      19.20      23.97       6.59
C      19.20      22.75       5.93
C      16.08      10.08       2.47
C      15.91       8.79       3.05
C      14.75       8.42       3.72
C      13.69       9.33       3.85
C      13.82      10.61       3.29
C      14.98      10.97       2.62
C      12.50       8.95       4.53
C      11.49       8.63       5.12
C      10.30       8.26       5.80
C      10.17       6.98       6.35
C       9.01       6.61       7.02
C       7.91       7.50       7.18
C       8.08       8.79       6.59
C       9.24       9.16       5.93
C       7.91      25.09      16.82
C       8.08      24.88      15.42
C       9.24      25.25      14.75
C      10.30      25.84      15.44
C      10.17      26.06      16.82
C       9.01      25.69      17.49
C      11.49      26.22      14.76
C      12.51      26.54      14.18
C      13.69      26.91      13.50
C      13.82      26.69      12.11
C      14.98      27.06      11.45
C      16.09      27.67      12.12
C      15.92      27.87      13.52
C      14.75      27.51      14.19
Br      19.78       5.50       0.06
Br       4.21      20.59      14.25
Br      19.78      32.16      14.69
Br       4.21      12.08       9.58
Br      -0.70      15.69       3.02
Br      17.47      16.27       1.96
Br      -0.70      24.19       7.69
Br      17.47      24.78       6.62
Br      17.21       7.38       3.02
Br      14.90      12.76       1.96
Br       1.87      27.70       7.69
Br       6.78      10.20       6.63
Br       6.78      24.10      14.25
Br       1.87      13.80       0.06
Br      14.90      26.66       9.58
Br      17.21      28.65      14.69
Cl      23.16       5.98       5.89
Cl       0.83      11.60       3.75
Cl      21.56       7.16       3.75
Cl       2.43      10.43       5.89
Cl      21.56      28.16      15.27
Cl       2.43      24.59      13.66
Cl      23.16      26.98      17.42
Cl       0.83      25.77      11.52
O      20.38      29.02       9.65
O       5.72       7.97       7.98
O      -1.29      27.32      11.09
O      27.37       8.28      12.08
O       6.59       5.93       8.38
O       3.84       9.35      10.14
O      21.37      28.30      12.62
O      18.27      28.60      12.08
O      25.28       6.45       7.44
O      17.40      27.84      10.14
O       2.62       8.27       7.44
O      -2.50      26.24       8.38
O      19.27      26.46       7.98
O       3.61      23.73      19.29
O      27.37      20.53      18.80
O       2.62      24.46      16.32
O      17.40      11.66       1.26
O       3.84      21.59      16.86
O      18.27       9.61       1.67
O      25.28      25.43      17.85
O      19.27      14.22       1.26
O      -1.29      11.13       2.21
O      -2.50      14.00       1.67
O      21.37       9.32       2.21
O       5.72      24.15      16.86
O       6.59      24.91      18.80
