288

Cu       5.26       3.97       8.91
Cu       5.26      -5.23      11.08
Cu       5.26       1.25      17.96
Cu       7.76       5.73       7.90
Cu       7.76      14.93      10.06
Cu       7.76      12.21       1.01
Cu       3.42       6.98      10.06
Cu       3.42      16.18       7.90
Cu       3.42       9.70       1.01
Cu       0.92       5.23      11.08
Cu       0.92      -3.97       8.91
Cu       0.92      -1.25      17.96
H       0.97      -1.91       6.23
H       0.97      -4.61      17.51
H       0.97       6.52      14.21
H       3.37       6.35       1.46
H       3.37       9.05      12.75
H       3.37      17.47       4.76
H       7.71      12.86      12.75
H       7.71      15.56       1.46
H       7.71       4.44       4.76
H       5.31       4.61      17.51
H       5.31       1.91       6.23
H       5.31      -6.52      14.21
H       6.25      -1.50       8.85
H       6.25      -2.54      15.85
H       6.25       4.04      13.25
H       6.77       8.42       3.12
H       6.77       9.45      10.12
H       6.77      15.00       5.73
H       2.43      12.46      10.12
H       2.43      13.49       3.12
H       2.43       6.91       5.73
H       1.91       2.54      15.85
H       1.91       1.50       8.85
H       1.91      -4.04      13.25
H       7.44      -1.37      10.18
H       7.44      -1.45      15.07
H       7.44       2.82      12.70
H       5.58       9.50       3.91
H       5.58       9.58       8.79
H       5.58      13.77       6.28
H       1.24      12.32       8.79
H       1.24      12.40       3.91
H       1.24       8.13       6.28
H       3.10       1.45      15.07
H       3.10       1.37      10.18
H       3.10      -2.82      12.70
H       0.82       2.38       5.65
H       0.82      -7.25      14.09
H       0.82       4.87      18.21
H       3.53       3.70       4.89
H       3.53      13.34      13.32
H       3.53      15.82       0.76
H       7.87       8.57      13.32
H       7.87      18.21       4.89
H       7.87       6.08       0.76
H       5.16       7.25      14.09
H       5.16      -2.38       5.65
H       5.16      -4.87      18.21
H       1.90      -0.96       4.21
H       1.90      -6.83      17.70
H       1.90       7.79      16.04
H       2.44       4.13       1.28
H       2.44      10.00      14.76
H       2.44      18.74       2.94
H       6.78      11.91      14.76
H       6.78      17.78       1.28
H       6.78       3.17       2.94
H       6.24       6.83      17.70
H       6.24       0.96       4.21
H       6.24      -7.79      16.04
H       2.90       0.40       4.77
H       2.90      -7.02      16.24
H       2.90       6.62      16.93
H       1.44       3.93       2.73
H       1.44      11.35      14.20
H       1.44      17.58       2.04
H       5.78      10.56      14.20
H       5.78      17.97       2.73
H       5.78       4.33       2.04
H       7.24       7.02      16.24
H       7.24      -0.40       4.77
H       7.24      -6.62      16.93
H       1.49       0.71       3.74
H       1.49      -8.07      16.49
H       1.49       7.36      17.72
H       2.85       2.88       2.48
H       2.85      11.66      15.23
H       2.85      18.32       1.25
H       7.19      10.24      15.23
H       7.19      19.03       2.48
H       7.19       3.59       1.25
H       5.83       8.07      16.49
H       5.83      -0.71       3.74
H       5.83      -7.36      17.72
H       7.36       0.58       8.90
H       7.36      -3.54      14.02
H       7.36       2.96      15.02
H       5.67       7.42       4.95
H       5.67      11.53      10.07
H       5.67      13.91       3.95
H       1.33      10.38      10.07
H       1.33      14.49       4.95
H       1.33       8.00       3.95
H       3.02       3.54      14.02
H       3.02      -0.58       8.90
H       3.02      -2.96      15.02
C       0.64      -0.91       6.52
C       0.64      -4.85      16.50
C       0.64       5.76      14.92
C       3.70       6.11       2.47
C       3.70      10.04      12.45
C       3.70      16.71       4.05
C       8.04      11.86      12.45
C       8.04      15.80       2.47
C       8.04       5.19       4.05
C       4.98       4.85      16.50
C       4.98       0.91       6.52
C       4.98      -5.76      14.92
C       7.78       2.89       7.71
C       7.78      -5.72      12.61
C       7.78       2.83      17.62
C       5.24       5.23       6.36
C       5.24      13.85      11.26
C       5.24      13.78       1.35
C       0.90       8.06      11.26
C       0.90      16.67       6.36
C       0.90       8.13       1.35
C       3.44       5.72      12.61
C       3.44      -2.89       7.71
C       3.44      -2.83      17.62
C       7.16      -1.94       9.28
C       7.16      -1.95      16.02
C       7.16       3.89      12.65
C       5.86       9.01       2.96
C       5.86       9.01       9.69
C       5.86      14.84       6.32
C       1.52      12.90       9.69
C       1.52      12.90       2.96
C       1.52       7.06       6.32
C       2.82       1.95      16.02
C       2.82       1.94       9.28
C       2.82      -3.89      12.65
C       0.55       1.48       6.20
C       0.55      -6.32      14.59
C       0.55       4.84      17.15
C       3.79       4.63       4.38
C       3.79      12.43      12.77
C       3.79      15.80       1.82
C       8.13       9.47      12.77
C       8.13      17.28       4.38
C       8.13       6.11       1.82
C       4.89       6.32      14.59
C       4.89      -1.48       6.20
C       4.89      -4.84      17.15
C       8.51      -0.79       7.66
C       8.51      -3.92      15.83
C       8.51       4.71      14.46
C       4.51       7.03       3.15
C       4.51      10.16      11.31
C       4.51      15.67       4.52
C       0.17      11.75      11.31
C       0.17      14.88       3.15
C       0.17       6.24       4.52
C       4.17       3.92      15.83
C       4.17       0.79       7.66
C       4.17      -4.71      14.46
C       1.87       0.08       4.56
C       1.87      -7.05      16.62
C       1.87       6.96      16.76
C       2.47       3.91       2.35
C       2.47      11.04      14.41
C       2.47      17.92       2.21
C       6.81      10.87      14.41
C       6.81      18.00       2.35
C       6.81       3.99       2.21
C       6.21       7.05      16.62
C       6.21      -0.08       4.56
C       6.21      -6.96      16.76
C       8.03       0.45       8.06
C       8.03      -4.20      14.55
C       8.03       3.75      15.34
C       4.99       6.75       4.42
C       4.99      11.41      10.92
C       4.99      14.71       3.64
C       0.65      10.50      10.92
C       0.65      15.16       4.42
C       0.65       7.20       3.64
C       3.69       4.20      14.55
C       3.69      -0.45       8.06
C       3.69      -3.75      15.34
C       8.39       1.59       7.31
C       8.39      -5.41      13.94
C       8.39       3.83      16.69
C       4.63       5.54       5.03
C       4.63      12.54      11.66
C       4.63      14.78       2.28
C       0.29       9.37      11.66
C       0.29      16.37       5.03
C       0.29       7.13       2.28
C       4.05       5.41      13.94
C       4.05      -1.59       7.31
C       4.05      -3.83      16.69
C       1.01       0.22       5.79
C       1.01      -6.05      15.89
C       1.01       5.83      16.27
C       3.33       4.90       3.08
C       3.33      11.17      13.18
C       3.33      16.79       2.70
C       7.67      10.73      13.19
C       7.67      17.01       3.08
C       7.67       5.12       2.70
C       5.35       6.05      15.89
C       5.35      -0.22       5.79
C       5.35      -5.83      16.27
C       6.87      -3.37       9.71
C       6.87      -0.86      17.04
C       6.87       4.23      11.20
C       6.15      10.10       1.93
C       6.15       7.58       9.26
C       6.15      15.19       7.78
C       1.81      14.33       9.26
C       1.81      11.81       1.93
C       1.81       6.72       7.78
C       2.53       0.86      17.04
C       2.53       3.37       9.71
C       2.53      -4.23      11.20
O       6.76       2.81       8.47
O       6.76      -5.03      12.30
O       6.76       2.21      17.18
O       6.26       5.93       6.67
O       6.26      13.77      10.50
O       6.26      13.17       1.80
O       1.92       8.14      10.50
O       1.92      15.98       6.67
O       1.92       8.74       1.80
O       2.42       5.03      12.30
O       2.42      -2.81       8.47
O       2.42      -2.21      17.18
O       8.22      -1.95       8.33
O       8.22      -2.76      16.50
O       8.22       4.72      13.12
O       4.80       8.19       2.47
O       4.80       9.00      10.64
O       4.80      15.67       5.86
O       0.46      12.91      10.64
O       0.46      13.72       2.47
O       0.46       6.24       5.86
O       3.88       2.76      16.50
O       3.88       1.95       8.33
O       3.88      -4.72      13.12
O       5.73      -3.50      10.28
O       5.73      -0.30      16.87
O       5.73       3.81      10.80
O       7.29      10.65       2.10
O       7.29       7.45       8.70
O       7.29      14.76       8.17
O       2.95      14.46       8.70
O       2.95      11.26       2.10
O       2.95       7.15       8.17
O       1.39       0.30      16.87
O       1.39       3.50      10.28
O       1.39      -3.81      10.80
O       8.31       3.96       7.26
O       8.31      -6.65      11.91
O       8.31       2.69      18.77
O       4.72       4.31       7.06
O       4.72      14.91      11.71
O       4.72      13.64       0.20
O       0.38       6.99      11.71
O       0.38      17.60       7.06
O       0.38       8.27       0.20
O       3.96       6.65      11.91
O       3.96      -3.96       7.26
O       3.96      -2.69      18.77
O       7.70      -4.31       9.53
O       7.70      -0.55      17.94
O       7.70       4.86      10.47
O       5.32      10.41       1.03
O       5.32       6.64       9.45
O       5.32      15.81       8.50
O       0.98      15.27       9.45
O       0.98      11.50       1.03
O       0.98       6.09       8.50
O       3.36       0.55      17.94
O       3.36       4.31       9.53
O       3.36      -4.86      10.47
