109

Zn       7.17       6.34      11.93
Zn       4.40       6.30      11.93
Zn       4.44       6.34      23.10
Zn       7.22       6.29      23.04
H       1.98       7.63      13.51
H       3.60      10.89      11.93
H       8.90       7.24      18.80
H       8.89       5.46      18.82
H       8.94       5.45      16.30
H       8.94       7.23      16.30
H       7.91       6.37       3.73
H       9.63       7.60      21.48
H       8.03      10.90      23.09
H       9.10       5.43       9.21
H      10.32       4.18       9.60
H       8.70       4.19      10.39
H       8.51       2.61      12.69
H       8.93       0.89      12.47
H       8.72       1.95      11.06
H       2.98       7.19       8.05
H       2.56       6.40       6.51
H       2.97       5.44       7.96
H       2.40       5.49       1.91
H       1.17       4.25       1.52
H       2.78       4.24       0.72
H       3.09       2.60      22.31
H       2.67       0.88      22.54
H       2.76       2.01       0.03
H       3.62       6.28      15.17
H       3.53       6.30      19.77
C       5.70       8.93      11.99
C       5.83       6.31      14.58
C       5.78       3.69      11.92
C       5.76       6.35       9.30
C       5.94       8.92      23.03
C       5.75       6.33      20.42
C       5.81       3.69      23.07
C       5.79       6.39       1.79
C      10.05       5.68      11.10
C       1.53       6.99      12.75
C       0.15       6.80      12.48
C      11.42       5.91      11.40
C       6.89       1.36      12.02
C       4.62      11.26      11.96
C       5.80       2.22      11.96
C       5.71      10.40      12.00
C       5.04      12.61      11.96
C       6.43       0.02      12.01
C       5.75       6.34      18.95
C       5.80       6.33      16.06
C       6.95       6.35      18.21
C       4.57       6.33      16.77
C       6.97       6.34      16.83
C       4.55       6.34      18.20
C       8.46       6.35      18.34
C       8.49       6.34      16.76
C       4.65       6.36       6.98
C       6.89       6.37       4.11
C       5.75       6.36       7.83
C       5.80       6.38       3.26
C       6.49       6.36       5.46
C       5.09       6.37       5.63
C       1.44       5.75       0.02
C      10.09       6.98      22.25
C      11.46       6.80      22.54
C       0.19       5.90      23.62
C       4.71       1.35      22.98
C       7.01      11.26      23.05
C       5.80       2.22      23.04
C       5.92      10.40      23.01
C       6.59      12.60      23.04
C       5.17       0.01      22.99
C       9.52       4.81      10.01
C       8.34       1.72      12.07
C       3.21       6.35       7.39
C       1.97       4.88       1.11
C       3.26       1.72      22.93
S      10.06       7.29      13.06
S       1.50       5.38      10.83
S       4.26       1.41      11.92
S       7.24      11.22      12.05
S       7.28       6.37       6.99
S       4.28       6.39       4.11
S       1.55       7.31      22.00
S       9.99       5.43       0.26
S       7.35       1.41      23.08
S       4.39      11.22      22.96
N       9.25       6.36      11.92
N       2.32       6.30      11.95
N       2.36       6.39      23.13
N       9.29       6.28      23.04
O       6.84       8.35      12.00
O       4.56       8.35      11.96
O       4.69       6.30      13.97
O       6.95       6.30      13.99
O       4.64       4.26      11.92
O       6.91       4.30      11.89
O       6.90       6.39       9.87
O       4.63       6.30       9.89
O       4.80       8.35      23.00
O       7.07       8.35      23.07
O       6.86       6.35      21.03
O       4.60       6.29      21.02
O       6.96       4.26      23.04
O       4.69       4.30      23.12
O       4.64       6.45       1.23
O       6.92       6.33       1.19
O       3.37       6.31      16.15
O       3.33       6.32      18.79
