110

Zn       5.73       8.79       7.55
Zn       5.71       5.89       7.53
H       7.17      13.50       6.01
H       6.62       8.97       3.16
H       5.85       5.58      14.45
H       3.66       5.64       0.97
H       3.49       1.35       8.22
H       7.68       1.18       7.19
H       3.67       3.85       8.15
H       7.67       3.69       7.14
H       8.25      10.51       4.23
H       8.34      12.18       4.83
H       5.78      10.87       3.73
H       4.36      13.47       9.30
H       5.98      12.58       4.10
H       7.69      12.80       2.24
H       6.14      12.18       1.62
H       7.50      11.07       1.87
H       2.48      10.61       8.17
H       2.49      12.06       9.24
H       2.44       9.15      10.20
H       2.33      10.57      11.24
H      11.16      11.21      10.13
H      11.07       9.56      10.79
H       2.78       8.11       5.33
H      11.30       9.80       9.06
H       4.63       4.26      11.20
H       5.04       3.84      12.90
H       6.59       3.02      10.38
H       7.16       2.75      12.03
H       5.18       1.30      12.53
H       6.01       0.68      11.10
H       4.51       1.61      10.92
H       4.98       4.14       4.07
H       3.96       3.80       2.63
H       8.83       7.92       5.08
H       2.99       3.95       5.54
H       1.95       3.67       4.14
H       3.18       1.53       3.61
H       2.56       1.48       5.26
H       4.27       1.81       4.97
H       1.62       8.70       3.24
H      10.16       8.58       3.10
H       4.81       9.74      14.00
H       6.47       8.90       0.67
H       5.09       9.51      11.52
C       5.76       7.38      10.11
C       5.08       7.24       0.65
C       4.44       1.82       7.99
C       6.76       1.73       7.39
C       4.53       3.20       7.95
C       6.77       3.11       7.36
C       5.57       1.05       7.69
C       6.55      12.98       6.74
C       4.95      12.97       8.54
C       6.49      11.58       6.74
C       4.95      11.57       8.48
C       5.46       7.34       4.95
C       5.78      13.68       7.66
C       3.11       7.21       7.64
C       8.32       7.18       7.45
C       1.69       8.06       5.28
C       9.92       7.96       5.14
C       1.04       8.40       4.11
C      10.66       8.34       4.04
C      10.56       7.61       6.36
C       0.96       7.64       6.42
C       1.61       7.23       7.62
C       5.61       7.43      11.60
C       9.82       7.20       7.51
C       0.87       6.83       8.72
C      10.48       6.82       8.67
C       5.09       8.78      13.56
C       5.88       8.21       1.28
C       5.25       8.66      12.18
C       5.96       8.25       2.67
C       7.65      11.33       4.65
C       6.51      11.70       3.71
C       6.99      11.95       2.29
C       5.26       7.34       3.47
C       2.75      10.99       9.17
C       2.06      10.18      10.25
C       0.55      10.19      10.05
C       5.46       4.03      11.89
C       6.25       2.83      11.41
C       5.45       1.53      11.49
C       3.96       4.22       3.65
C       2.96       3.50       4.54
C       3.26       2.00       4.60
C       5.82       6.32      12.44
C       4.41       6.41       2.84
C       5.63       6.44      13.82
C       4.33       6.36       1.44
C       5.28       7.67      14.40
Br       1.80       6.28      10.28
Br       9.48       6.35      10.22
N       5.67       3.84       7.63
N       5.71      10.89       7.60
O       6.03       8.48       9.53
O       4.20      10.83       9.31
O       6.35       5.15      11.94
O       3.59       5.61       3.61
O       5.36       8.47       5.54
O       5.55       6.26       9.53
O       5.73       6.23       5.50
O       3.69       8.32       7.82
O       7.75       8.31       7.32
O       3.65       6.09       7.41
O       7.76       6.04       7.51
O       7.17      10.79       5.90
