39

Zn       2.66       4.60       6.13
Zn       5.44       5.25       6.28
H       3.43       0.96       4.77
H      -0.72       3.12       7.87
H       1.17       5.74       4.23
H       8.79       5.78       8.39
H       6.85       4.60       4.06
C       4.54       2.42       6.08
C       4.08       5.32       2.11
C       4.10       5.46       0.89
C       3.91       4.46      11.40
C       3.93       4.58      10.18
C       4.30       9.87       6.59
C       3.38       8.87       6.69
C       5.73       0.27       6.78
C       4.84       0.96       6.01
C      -0.30       4.45       6.54
C       8.37       5.06       6.65
C       4.05       5.14       3.53
C       3.60       7.42       6.41
C       3.97       4.72       8.74
N       0.63       4.74       5.70
N       7.44       5.10       5.76
Cl       5.97       9.58       6.24
Cl       1.78       9.27       7.21
Cl       6.66       1.04       8.02
O       3.39       2.75       5.61
O       0.06       3.60       7.54
O       0.33       5.69       4.75
O       8.01       5.51       7.88
O       7.72       4.51       4.55
O       5.42       3.21       6.52
O       2.92       5.25       4.12
O       5.14       4.87       4.12
O       2.63       6.62       6.65
O       4.74       7.07       5.96
O       3.01       4.20       8.10
O       4.97       5.35       8.28
O       4.11       0.31       5.07
