53

Zn       5.92      12.23       8.50
Zn       4.84       3.81       6.30
Zn       8.01      12.20       6.00
Zn       7.12       3.42       8.57
H       6.13       7.91       8.96
H       6.67       7.90       5.92
H      11.24       2.36       5.66
H      11.31       3.12       8.66
H       6.46       7.92      11.91
H       6.13       6.43      13.76
H       6.09       5.03       2.46
H       8.69      14.23      12.69
H       8.10       8.80       0.57
H       6.91      10.16      11.02
C       6.07       6.04       7.80
C       5.96       4.25       1.72
C       5.37       1.94       1.29
C       6.73       9.76       7.08
C       7.78      12.31      12.36
C       6.52       8.30       6.92
C       6.21       7.51       7.95
C      10.87       2.64       6.65
C       0.87       2.92       7.66
C       2.35       2.85       7.55
C       9.41       2.57       6.87
C       8.62      13.05      14.50
C       5.64       2.82       3.69
C       7.52      12.67      10.94
C       6.41       7.21      14.47
C       5.63       2.98       2.21
C       8.39      13.28      13.15
C       7.22       6.85       0.55
C       7.59      10.81      14.35
C       7.42      11.05      12.94
C       6.12       4.53       0.35
C       6.77       8.48      13.98
C       6.73       8.73      12.58
C       7.00       9.97      12.09
Br       6.04      10.99       1.86
Br       7.78       6.74       2.38
O       7.07      13.31       7.33
O       5.07       3.74       4.36
O       8.37      13.46      10.38
O       6.26       1.81       4.16
O       6.46      12.23      10.39
O       4.09      12.91       8.43
O       8.94       3.24       7.85
O       5.44       5.62       6.78
O       7.52      10.31       6.24
O       6.61       5.32       8.72
O       6.10      10.33       8.04
O       2.91       3.51       6.62
O       9.93      12.62       6.06
