184

Zn      10.42       1.52       2.97
Zn       5.60      11.57       2.58
Zn       8.36       5.31       7.27
Zn       4.72       5.17      11.89
Zn       4.37       8.49      11.51
Zn       6.78       1.38      16.20
Zn      -3.77      11.86      14.88
Zn       1.05       1.81      15.26
Zn      -1.71       8.07      10.58
Zn       1.93       8.21       5.96
Zn       2.27       4.88       6.34
Zn      -0.13      12.00       1.65
H       6.25      13.16       4.23
H       8.15       3.41       4.39
H      -2.79       7.77       7.46
H       6.72       7.93       8.02
H       6.30       7.54       6.32
H       1.12       1.71       0.68
H       8.16       6.90       4.77
H      -1.98       7.07       5.36
H       6.13       9.98       6.69
H       7.83      10.04       7.25
H      -2.19       9.48       5.57
H      -2.68       9.04       3.91
H       7.71      10.62       4.84
H       6.80       9.31       4.57
H       3.72       6.90      13.16
H       6.99       3.28      13.32
H       0.95      12.30      16.39
H       3.25      12.14      16.94
H       3.68      12.52      15.25
H       2.20       4.98       9.61
H       1.81      13.16      13.70
H       0.14      12.99      14.28
H       3.85      10.08      15.62
H       2.14      10.02      16.18
H       0.35      10.58      14.49
H       0.84      11.02      12.84
H       2.26       9.44      13.77
H       3.18      10.76      13.50
H       0.40       0.22      13.61
H      -1.50       9.96      13.45
H       9.44       5.61      10.39
H      -0.07       5.45       9.83
H       0.35       5.83      11.53
H       5.52      11.67      17.17
H      -1.51       6.47      13.08
H       8.63       6.30      12.49
H       0.52       3.39      11.16
H      -1.18       3.33      10.59
H       8.84       3.89      12.28
H       9.33       4.34      13.94
H      -1.06       2.75      13.01
H      -0.15       4.07      13.28
H       2.93       6.47       4.69
H      -0.34      10.10       4.53
H       5.70       1.08       1.46
H       3.40       1.24       0.91
H       2.97       0.85       2.60
H       4.45       8.40       8.24
H       4.84       0.21       4.15
H       6.51       0.39       3.57
H       2.80       3.30       2.23
H       4.51       3.35       1.67
H       6.30       2.80       3.36
H       5.81       2.35       5.01
H       4.39       3.93       4.08
H       3.47       2.62       4.35
C      -0.50       3.36       5.08
C       9.15       3.53       4.81
C      -0.55       4.88       7.30
C      -1.04       4.17       6.09
C       9.73       1.79      15.34
C      10.27       1.76      16.72
C       7.03       8.03       6.97
C       0.83       2.82       4.69
C       0.11       1.72       0.29
C       8.83       7.49       5.42
C       7.11       9.51       6.61
C      -2.94       8.94       4.98
C       8.41       1.72       0.85
C       9.74       1.71       0.18
C       3.83       3.33      14.01
C       5.99       3.16      13.73
C       3.87       1.81      16.23
C       4.36       2.51      15.02
C       5.41       4.89       6.41
C       4.87       4.92       7.80
C       2.94      12.03      15.90
C       2.49       3.87      13.62
C       3.21       4.96       9.22
C       1.15      12.57      14.35
C       2.86      10.55      15.54
C       1.10      11.12      13.90
C       6.73       4.97       9.77
C       5.40       4.98       9.11
C       7.15      10.02      12.77
C      -2.50       9.85      13.04
C       7.19       8.50      10.55
C       7.69       9.20      11.75
C      -3.08      11.58       2.51
C      -3.62      11.61       1.13
C      -0.39       5.34      10.87
C       5.82      10.56      13.16
C       6.53      11.65      17.56
C      -2.18       5.88      12.43
C      -0.46       3.87      11.24
C       9.59       4.43      12.87
C      -1.76      11.66      17.00
C      -3.10      11.67      17.67
C       2.82      10.04       3.84
C       0.65      10.22       4.12
C       2.78      11.57       1.62
C       2.29      10.86       2.83
C       1.24       8.48      11.44
C       1.78       8.45      10.05
C       3.71       1.34       1.95
C       4.16       9.50       4.23
C       3.44       8.41       8.63
C       5.50       0.81       3.50
C       3.79       2.82       2.31
C       5.55       2.25       3.95
C      -0.08       8.40       8.07
C       1.25       8.40       8.74
N      10.25       2.97       4.29
N      -0.18       1.78      16.83
N       9.42       4.26       5.90
N       8.34       7.35       6.81
N       7.57       9.64       5.20
N      10.82       1.68       1.04
N       4.89       3.72      13.22
N       3.50       4.91       7.91
N       5.72       2.43      14.82
N       1.64      12.71      15.74
N       2.40      10.43      14.12
N       4.32       5.01       9.96
N      -3.60      10.41      13.56
N       6.82      11.60       1.02
N      -2.77       9.12      11.95
N      -1.69       6.03      11.04
N      -0.92       3.74      12.65
N      -4.17      11.70      16.81
N       1.76       9.66       4.63
N       3.15       8.47       9.94
N       0.93      10.94       3.03
N       5.01       0.66       2.11
N       4.25       2.95       3.73
N       2.33       8.37       7.88
O       5.39      13.11       3.78
O       0.85       1.97       3.76
O       0.69       4.92       7.60
O      -1.44       5.42       8.04
O       7.31       1.83       0.20
O       1.92       3.20       5.29
O       8.48       1.83      15.11
O      10.61       1.80      14.40
O       8.42       1.65       2.12
O       4.59       6.95      12.70
O       2.47       4.72      12.68
O       2.63       1.77      16.52
O       4.76       1.27      16.96
O       7.83       4.86       9.12
O       1.41       3.49      14.21
O       6.66       4.86       6.18
O       4.53       4.89       5.48
O       6.72       5.04      11.05
O       1.26       0.26      14.07
O       5.79      11.41      14.09
O       5.96       8.46      10.25
O       8.08       7.96       9.81
O      -0.67      11.55      17.65
O       4.73      10.18      12.56
O      -1.83      11.55       2.74
O      -3.96      11.58       3.45
O      -1.77      11.73      15.73
O       2.06       6.43       5.14
O       4.18       8.65       5.17
O       4.02      11.60       1.33
O       1.89      12.11       0.89
O      -1.18       8.51       8.73
O       5.24       9.89       3.63
O      -0.01       8.51      11.66
O       2.12       8.49      12.37
O      -0.07       8.34       6.80
