160

Zn      18.05       2.09       0.93
Zn      10.32      15.08       0.85
Zn      17.90      11.09      13.25
Zn      25.05      15.31       0.83
Zn       9.02       3.83       7.11
Zn       7.24       6.50       7.12
Zn      10.46       6.63       6.95
Zn       8.99       5.71       9.68
H       2.43       2.58       4.68
H       7.05       3.10       3.14
H       6.06       4.03       0.73
H      -2.23      -1.48      13.37
H      -2.44      -3.81      12.49
H       5.54      10.22      13.99
H       5.06      -0.12       1.34
H      10.49       0.27      13.21
H       7.08       0.82       9.74
H       6.21      -1.21      13.47
H       4.07      -2.46      13.43
H       3.12      -3.24      11.26
H       4.37      -2.83       9.15
H       6.51      -1.57       9.19
H      13.59       3.53       1.74
H      13.39       2.55       6.53
H      15.88       2.83       6.93
H      -0.39       1.50       8.15
H       0.22      -0.78       7.34
H      -0.89      -1.71       5.31
H      15.39      -0.38       4.09
H       3.88      10.65      11.18
H       5.05       5.93      11.75
H       0.99       7.26      12.48
H      -0.35       5.50      13.57
H       0.78       3.71      14.91
H      12.17       8.79       0.23
H       4.60       5.54      14.11
H       8.03      11.12       6.23
H       9.02      10.67       1.45
H       7.19       8.39       1.56
H       7.41       6.13       0.54
H       9.36       4.68       1.12
H      11.11       5.52       2.69
H      10.89       7.78       3.69
H      14.02       6.26      10.34
H      13.05      10.61      12.38
H      10.31      10.25      12.50
H       8.40      11.60      11.68
H       8.13      12.05       9.24
H       9.82      11.14       7.63
H      11.70       9.78       8.45
C       2.68       1.59       2.24
C       3.78       2.18       3.05
C       3.45       2.68       4.32
C       5.57       3.42       4.69
C       6.01       2.97       3.44
C       5.10       2.35       2.57
C       5.51       1.99       1.19
C       5.99       3.01       0.35
C      -2.58      -2.29      14.02
C      -2.70      -3.59      13.52
C      -3.14      -4.61      14.36
C       5.42       0.68       0.69
C       6.55       4.10       5.61
C       8.85      -1.83      13.20
C       8.72      -0.61      12.34
C       9.71       0.38      12.45
C       8.85       1.57      10.70
C       7.82       0.65      10.51
C       7.71      -0.45      11.38
C       6.50      -1.31      11.33
C       5.81      -1.58      12.53
C       4.60      -2.28      12.50
C       4.07      -2.72      11.28
C       4.77      -2.47      10.10
C       5.97      -1.76      10.12
C       8.92       2.79       9.82
C      15.53       1.82       2.40
C      14.53       2.42       3.34
C      13.58       3.31       2.81
C      12.60       3.63       4.85
C      13.49       2.76       5.47
C      14.52       2.16       4.73
C      15.53       1.33       5.42
C      16.14       1.83       6.58
C      -0.87       1.08       7.26
C      -0.52      -0.19       6.80
C      -1.14      -0.71       5.66
C      15.88       0.05       4.97
C      11.52       4.28       5.66
C       2.41       9.56      13.13
C       3.40       8.84      12.27
C       4.11       9.59      11.31
C       5.41       7.80      10.75
C       4.77       6.98      11.67
C       3.70       7.47      12.42
C       2.89       6.52      13.22
C       1.49       6.51      13.10
C       0.74       5.51      13.70
C       1.37       4.51      14.45
C       2.76       4.54      14.61
C       3.51       5.53      13.99
C       6.46       7.19       9.85
C       8.70       8.55       5.61
C       8.62       9.73       4.68
C       8.28      10.99       5.17
C       8.50      11.94       3.11
C       8.80      10.72       2.51
C       8.84       9.57       3.30
C       9.03       8.23       2.69
C       8.06       7.76       1.79
C       8.18       6.49       1.23
C       9.27       5.68       1.55
C      10.25       6.15       2.43
C      10.13       7.42       3.00
C       8.54      13.20       2.28
C      11.56       7.18       9.59
C      12.59       7.87      10.43
C      13.79       7.24      10.77
C      14.39       8.94      12.16
C      13.21       9.65      11.91
C      12.30       9.14      10.98
C      11.13       9.92      10.53
C      10.20      10.45      11.43
C       9.12      11.21      10.97
C       8.98      11.46       9.60
C       9.91      10.95       8.70
C      10.97      10.17       9.16
C      15.41       9.54      13.09
N       4.31       3.30       5.13
N       9.78       1.46      11.67
N      12.65       3.93       3.54
N       5.08       9.09      10.54
N       8.20      12.09       4.41
N      14.70       7.76      11.59
O      17.99       0.27       0.23
O       2.72       0.34       2.00
O       1.77       2.41       1.89
O       6.14       5.13       6.24
O       7.71       3.56       5.67
O       8.80      -2.95      12.59
O       9.03      -1.63      14.44
O       9.22       3.89      10.38
O       8.66       2.59       8.59
O      15.19       0.73       1.84
O      16.60       2.48       2.22
O      11.39       5.54       5.59
O      10.83       3.48       6.38
O       2.46       9.31      14.37
O       1.63      10.38      12.54
O       6.34       7.41       8.61
O       7.34       6.48      10.44
O       9.85       8.31       6.11
O       7.62       7.92       5.80
O       7.44      13.81       2.07
O       9.69      13.51       1.85
O      11.80       7.03       8.35
O      10.53       6.80      10.23
O      15.03       9.74      14.29
O      16.54       9.82      12.58
O       8.93       5.69       7.72
