170

Zn       3.94       7.79       8.76
Zn      -2.05      27.63       9.36
Zn      19.90      28.97      11.52
Zn      18.63      27.95       8.78
Zn      19.92       9.61       0.83
Zn       3.93      23.22      17.29
Zn      18.65      12.51       0.25
Zn      -2.07      12.18       0.85
H      27.02      17.82      18.52
H       4.08      19.87      14.81
H      27.07       9.61      14.00
H       4.03      11.67      10.28
H      -1.51      15.77       2.90
H      18.09      16.17       2.19
H      -1.52      23.95       7.48
H      18.10      24.39       6.67
H      16.70       8.01       2.94
H      14.98      11.90       2.13
H       8.86       5.49       7.42
H       7.19       9.42       6.70
H       7.15      24.16      14.82
H       8.86      25.55      18.54
H      14.98      26.61      10.30
H      16.65      28.09      14.00
H      23.73       5.73       6.41
H      22.79       5.56       4.99
H       0.25      11.58       3.04
H       1.77      11.33       3.79
H      21.04       7.69       3.19
H      21.16       6.74       4.62
H       2.66       9.81       6.57
H       1.96      11.19       5.82
H      21.18      28.19      14.41
H      21.88      28.29      15.97
H       2.80      24.21      14.41
H       2.68      24.91      12.84
H      23.60      26.14      17.78
H      22.07      26.65      17.17
H       0.11      25.88      11.04
H       1.06      24.58      11.65
C       6.65       7.02       7.86
C      -1.60      27.28      12.28
C      27.47       9.20      11.34
C      17.19      27.79      11.35
C       1.61       7.53       6.93
C      20.21      25.61       7.87
C       3.63      20.29      17.46
C       1.61      24.94      16.53
C      17.21      10.40       1.74
C      -3.63      14.52       1.75
C      -1.61       9.87       2.68
C       6.63      24.41      17.47
C       0.79       8.12       5.85
C      -0.79       9.28       3.75
C      23.52       7.42       5.31
C       0.34       9.97       4.28
C      22.72       8.00       4.30
C       1.11       9.42       5.33
C      23.05      26.69      13.36
C       0.79      25.53      15.46
C      22.74      26.93      14.73
C       1.13      25.31      14.08
C      23.50      26.34      15.76
C       0.33      25.85      13.05
C       3.63      18.98      16.74
C      27.22      17.80      17.45
C      27.22      16.60      16.76
C       3.63      16.50      15.37
C       3.88      17.73      14.71
C       3.89      18.95      15.36
C      27.47      15.28      14.70
C      27.47      14.21      14.11
C      27.47      12.98      13.43
C      27.25      11.75      14.09
C      27.25      10.53      13.45
C      27.47      10.50      12.06
C       3.86      11.69      11.35
C       3.85      12.89      12.04
C      -3.63      15.83       2.47
C      -2.43      16.33       3.01
C      -2.46      17.54       3.67
C      20.21      18.30       3.84
C      19.04      17.76       3.27
C      19.01      16.55       2.60
C      20.21      19.53       4.52
C      20.21      20.60       5.10
C      20.21      21.83       5.78
C      -2.46      22.37       6.37
C      -2.44      23.57       7.04
C      20.21      24.30       7.15
C      19.02      23.82       6.59
C      19.04      22.61       5.93
C      15.97      10.00       2.46
C      15.87       8.72       3.02
C      14.71       8.37       3.68
C      13.61       9.24       3.83
C      13.77      10.52       3.24
C      14.91      10.91       2.57
C      12.44       8.87       4.50
C      11.42       8.54       5.09
C      10.25       8.17       5.77
C      10.09       6.88       6.33
C       8.95       6.49       7.00
C       7.90       7.41       7.14
C       8.00       8.71       6.60
C       9.16       9.05       5.93
C       7.87      24.81      16.75
C       7.97      24.61      15.37
C       9.13      24.98      14.72
C      10.23      25.57      15.39
C      10.08      25.75      16.78
C       8.93      25.39      17.47
C      11.40      25.94      14.71
C      12.42      26.27      14.12
C      13.59      26.64      13.44
C      13.75      26.43      12.05
C      14.90      26.79      11.37
C      15.95      27.39      12.08
C      15.84      27.63      13.45
C      14.68      27.25      14.10
N      23.10       6.16       5.74
N       0.76      11.23       3.84
N      21.65       7.22       3.87
N       2.18      10.20       5.76
N      21.67      27.72      15.16
N       2.20      24.53      13.66
N      23.08      26.64      17.06
N       0.74      25.55      11.76
O       3.63       6.05       9.61
O       5.75       7.91       7.99
O      -1.23      27.13      11.06
O      27.33       8.15      12.05
O       6.59       5.81       8.28
O       3.78       9.24      10.07
O      21.17      27.93      12.59
O      18.09      28.38      12.04
O      25.07       6.42       7.46
O      17.25      27.51      10.11
O       2.68       8.14       7.31
O      -2.53      25.97       8.41
O      19.11      26.26       7.88
O       3.63      23.46      19.21
O      27.18      20.26      18.70
O       2.55      24.11      16.22
O      17.22      11.55       1.19
O       3.92      21.32      16.77
O      18.17       9.55       1.73
O      25.19      25.25      17.76
O      19.08      14.10       1.33
O      -1.35      11.08       2.29
O      -2.50      13.94       1.61
O      21.29       9.17       2.15
O       5.68      23.95      16.76
O       6.63      24.57      18.74
F       4.12      17.68      13.38
F      26.98      15.45      17.44
F       4.08      14.04      11.36
F      27.02      11.79      15.43
F      17.89      18.46       3.41
F      -1.31      18.02       4.20
F      17.90      22.13       5.38
F      -1.32      21.65       6.25
F      12.74      11.39       3.36
F      14.61       7.13       4.23
F       9.28      10.30       5.41
F      11.11       6.00       6.20
F      11.11      26.32      17.46
F       9.24      24.78      13.39
F      14.56      27.47      15.44
F      12.73      25.85      11.38
