110

Zn       5.41       5.57       8.99
Zn       4.99       7.69       6.59
Zn       7.38       5.53       6.43
Zn       7.38       7.91       8.61
H       5.42      11.71       5.19
H       3.75       6.28       0.05
H       9.51       8.03       1.16
H       3.49       4.77       1.87
H       2.05       6.69       2.35
H       2.92       6.81       3.91
H       1.94       5.36       3.55
H       7.05       1.33      11.28
H       6.78       2.75      10.35
H       1.01       2.60       7.71
H       3.68       3.24       7.60
H       7.02      -0.78      10.35
H       2.96       4.16       6.26
H       2.76       2.40       6.31
H      12.33       3.57       8.57
H      10.43       3.11       9.61
H       9.54       3.77       8.21
H      10.00       4.84       9.56
H       8.30       8.92       2.44
H       7.99       7.80       3.69
H       9.77       8.25      13.10
H       8.77       8.33      11.68
H       5.58      14.18       4.90
H      11.55       9.15       0.91
H      10.22       5.15      15.02
H      11.49       6.41      15.11
H      10.57       6.17      13.61
H       4.50       8.08      11.69
H       2.48       8.10      10.66
H       1.78       7.74      12.26
H       2.20       6.42      11.14
H       6.89      10.97       9.59
H       7.23      12.55      10.25
H       6.30       1.28       5.90
H       0.96       8.00       7.59
H      13.75       9.03       7.51
H      -1.00       3.47       7.83
H      11.27       8.77       7.55
H       2.30       5.76      13.45
C       6.00      10.26       7.33
C       6.92       7.49       1.98
C       4.77       6.29       1.94
C       6.62       3.10       7.80
C       6.67       7.11      12.77
C       6.03      11.73       7.26
C       6.68       1.62       7.97
C       6.88      -0.36       9.36
C       6.88       1.04       9.27
C       6.46       0.81       6.87
C       6.39      -0.60       6.97
C       8.21       7.02      14.65
C       6.39      13.96       8.25
C       6.40      12.52       8.37
C       5.70      12.36       6.02
C       2.80       6.23       7.93
C       5.79      13.72       5.86
C       1.36       5.92       7.75
C      11.31       6.62       7.78
C      13.29       8.05       7.62
C      11.93       7.90       7.65
C      12.10       5.47       7.97
C       9.24       8.41       0.18
C      13.55       5.60       7.85
C      -0.89       6.90       7.70
C       0.51       7.01       7.66
C       0.80       4.60       7.77
C       9.84       6.64       7.63
C      -0.60       4.48       7.85
C       5.99       6.57       4.11
C       6.58       7.00      11.29
C       4.64       6.60       0.60
C       5.90       6.77       2.65
C       5.85       6.37      14.98
C       7.95       7.39      13.29
C       2.61       6.12       3.12
C       2.80       3.31       6.93
C      10.32       3.98       8.95
C      10.50       6.17      14.70
C       2.51       7.41      11.51
C       5.60       6.71      13.62
C       6.83       7.72       0.57
C       3.58       5.43      15.15
C       3.31       5.91      13.85
C       4.22       6.67      13.14
N       3.80       5.44       2.57
N       7.14       1.80      10.39
N       1.56       3.45       7.67
N      11.61       4.24       8.33
N       8.00       7.99       2.70
N       9.00       7.89      12.56
N       9.53       7.18      15.14
N       3.86       7.38      12.03
N       6.73      11.98       9.58
O       6.28       6.65       7.63
O       4.96       6.82       4.82
O       7.17       7.89      10.57
O       7.13       6.19       4.60
O       5.98       5.98      10.82
O       3.49       5.45       8.68
O       9.24       7.67       8.13
O       5.39       9.60       6.42
O       6.94       3.60       6.67
O       6.60       9.70       8.33
O       6.21       3.77       8.82
O       3.24       7.31       7.40
O       9.28       5.70       6.97
