158

Zn      24.97      17.77      14.03
Zn      18.06       7.66       1.04
Zn      17.98      10.86       0.95
Zn      10.24      17.88      13.87
Zn      10.64      18.44       0.95
Zn      17.58      25.48      13.97
Zn      17.68      10.19      13.90
Zn       7.41      18.53       1.03
H       7.02      18.31       5.28
H      11.32      18.28       4.93
H      10.51      18.04       9.66
H       6.21      18.03      10.02
H      17.79      10.60       9.71
H      17.84       6.29       9.93
H      17.98       7.25       5.23
H      17.92      11.56       5.00
H      23.79      22.39      13.44
H      24.37      22.99      15.00
H      22.77      24.69      14.92
H      22.16      24.04      13.38
H      13.24      15.24       1.90
H      11.94      14.04       1.92
H      14.80      13.49       1.95
H      13.49      12.31       1.92
H      21.93      20.65      13.38
H      21.27      20.02      14.88
H      19.66      21.72      14.91
H      20.29      22.32      13.39
H      11.43      13.20      13.31
H      10.83      12.65      14.89
H      12.43      10.94      14.88
H      13.03      11.52      13.31
H       4.76       3.28       1.81
H       6.05       4.48       1.78
H       3.18       5.00       1.81
H       4.48       6.20       1.75
H      13.27      14.93      13.20
H      13.95      15.60      14.68
H      15.55      13.90      14.72
H      14.89      13.25      13.23
H      24.18      12.91      13.95
H      23.06      13.99      13.12
H      21.47      12.28      13.06
H      22.60      11.21      13.90
H      19.89      13.74      14.36
H      11.25       5.10       0.93
H      21.48      15.45      14.46
H      12.86       6.77       1.02
H      15.58       4.22       1.29
H      14.48       5.23       2.22
H      12.87       3.54       2.16
H      13.97       2.53       1.24
H      11.05      22.81      13.77
H      12.22      21.80      12.91
H      13.74      23.58      12.95
H      12.59      24.55      13.88
H      15.35      22.05      14.15
H       6.77      13.40       0.72
H      13.79      20.30      14.15
H       5.19      11.69       0.72
H       2.43      14.21       1.12
H       3.52      13.16       2.01
H       5.14      14.83       2.05
H       4.03      15.91       1.22
C      15.45       6.66       0.05
C      18.02       9.31       3.48
C      23.99      20.33      15.17
C      11.20      20.42      15.00
C       8.50      17.94      11.47
C      11.22      15.30      15.01
C      20.10      24.43      15.12
C      17.78       8.53      11.45
C      20.18      11.15      15.13
C      15.12      11.20      15.03
C       9.06      18.38       3.47
C      15.04      24.57      15.07
C       8.00      18.28       5.75
C      10.43      18.26       5.56
C      10.53      18.18       6.92
C       9.41      18.15       7.79
C       9.53      18.07       9.19
C       7.10      18.07       9.39
C       6.99      18.15       8.03
C       8.12      18.19       7.16
C       9.14      18.31       4.97
C       8.39      18.03       9.98
C      17.82       9.63       9.21
C      17.85       7.20       9.33
C      17.88       7.13       7.96
C      17.89       8.29       7.14
C      17.95       8.22       5.73
C      17.91      10.65       5.60
C      17.86      10.71       6.97
C      17.86       9.56       7.80
C      17.81       8.47       9.96
C      17.96       9.38       4.98
C      23.48      22.66      14.46
C      22.41      23.78      14.42
C      21.12      23.30      15.13
C      12.86      14.34       1.39
C      13.90      13.19       1.41
C      22.90      21.40      15.16
C      21.65      20.93      14.41
C      20.58      22.05      14.41
C      11.73      12.96      14.34
C      12.80      11.83      14.34
C      14.10      12.33      15.02
C       5.13       4.16       1.27
C       4.08       5.29       1.26
C      12.30      14.23      15.01
C      13.56      14.68      14.23
C      14.62      13.56      14.25
C      23.17      13.32      13.98
C      22.11      12.19      13.95
C      12.61       3.67       0.02
C      11.91       5.05       0.05
C      12.98       6.18       0.11
C      14.40       5.57       0.08
C      14.57       4.64       1.29
C      13.50       3.52       1.26
C      12.08      22.42      13.81
C      13.10      23.58      13.85
C      14.00      23.45      15.10
C      14.72      22.08      15.05
C      13.67      20.93      15.04
C      12.25      21.52      15.06
C       3.45      13.80       1.12
C       4.50      14.92       1.16
O       8.67      17.82      15.06
O      23.90      16.17      14.37
O      18.10       8.16       2.95
O      16.41      11.99       0.68
O      16.43       6.58       0.86
O      23.80      19.29      14.46
O      17.98      10.43       2.87
O       1.57      11.96       0.57
O       9.67      17.92      11.98
O      11.38      19.46      14.17
O       7.39      17.89      12.11
O       1.63       6.53       0.61
O      11.35      16.29      14.20
O      17.59       8.62      15.07
O      11.80      16.91       0.55
O      17.81       7.42      12.07
O      19.27      11.28      14.24
O      19.01      24.24      14.48
O      11.68       1.58       0.73
O      17.71       9.69      11.99
O      16.10      11.30      14.23
O       7.90      18.52       2.95
O       6.28       1.63       0.64
O      10.17      18.30       2.85
O      15.91      24.50      14.14
O       6.34      16.90       0.75
F       5.76      18.19       7.46
F      11.77      18.14       7.50
F      17.83      11.93       7.58
F      17.91       5.92       7.35
