63

Zn       8.41       9.01       9.64
Zn       8.25       6.63       7.51
Zn       6.36       9.16       7.23
Zn       5.91       7.07       9.70
H       4.98       2.22       1.35
H       6.21       6.29      13.90
H       5.98       4.10       2.54
H       9.60      11.29      14.61
H       8.49       3.31      10.74
H       8.86      12.76      11.09
H      10.14      12.57       9.90
H       8.64       9.35       0.77
H       5.55       2.69       7.72
H       1.94       8.33       6.70
H      12.65       7.34       9.62
H       6.72       5.65       3.48
H       8.41       9.58       3.25
H      10.62      13.16      15.78
H       6.47       6.31      16.39
C       7.02       4.42       9.00
C       9.48      11.36      15.69
C      10.07      12.40      16.35
C       7.57      11.55       8.45
C       7.70       7.40       0.69
C       7.10       6.34       1.44
C       8.19       8.55       1.36
C       8.08       8.68       2.73
C       7.10       6.45       2.85
C       7.66      13.01       8.44
C       7.01       2.93       9.23
C       6.68       7.13      14.41
C       2.27       8.00       7.68
C      12.25       7.60       8.64
C      10.77       7.63       8.54
C       3.73       8.10       7.97
C       7.47       7.70       4.97
C       7.03       8.15      12.16
C       7.12       8.23      13.65
C       7.56       7.60       3.48
C       6.84       7.14      15.78
C       9.41      13.28      10.30
C       7.70       9.34      14.28
C       7.83      10.54      13.51
C       7.99       9.32      15.69
C       7.49       8.21      16.44
C       8.73      10.36      16.38
C       6.50       5.23       0.74
C       5.94       4.13       1.45
C       5.37       3.07       0.79
N       7.81      11.55      12.92
O       7.21       7.94       8.53
O       7.66       6.63       5.64
O       6.11       7.44      11.64
O       7.21       8.85       5.46
O       7.95       8.77      11.53
O      10.22       8.23       9.52
O       4.13       7.59       9.07
O       7.98       4.85       8.28
O       6.67      11.04       7.69
O       6.10       5.10       9.55
O       8.38      10.89       9.20
O      10.19       7.08       7.55
O       4.44       8.70       7.10
