57

Zn       6.58       6.15       7.21
Zn       3.86       6.25       7.36
H       3.20      10.54       7.99
H       9.04       6.61       4.11
H       1.71       6.61       4.21
H       2.90       2.03       7.85
H       7.58       1.81       5.34
H       8.20       1.94       7.00
H       7.86      10.35       5.48
H       8.71       6.59       9.24
H       9.00      11.79       8.88
H       7.91      10.46       9.32
H       9.67      10.24       9.41
H       8.72       9.11       7.38
H       9.87      10.39       6.93
C       5.18       8.78       7.42
C       5.49       6.22      11.34
C       6.39      10.97       6.98
C       5.24      10.27       7.37
C       4.11      11.05       7.68
C       3.79       1.45       7.60
C       4.95       2.15       7.20
C       6.06       1.37       6.89
C       7.48       1.42       6.36
C       7.82      10.83       6.47
C       1.06       6.02       6.23
C       5.27       6.27       4.64
C       0.93       6.53       8.42
C       9.33       6.43       8.35
C       9.47       5.97       6.16
C       9.43       5.74       4.65
C       1.26       5.76       4.74
C       4.97       3.64       7.15
C       5.48       6.08       9.91
C       5.19       6.06       3.22
C       5.17       5.79       2.02
C       5.16       5.50       0.72
C       5.44       6.68      13.86
C       5.46       6.43      12.55
C       1.93       4.53       4.35
C       8.88      10.20       7.38
C       8.86      10.70       8.83
C       1.50       6.93       9.67
C       8.81       4.53       4.15
N       1.74       6.31       7.34
N       8.67       6.15       7.21
N       2.41       3.52       4.02
N       1.83       7.30      10.73
N       8.35       3.55       3.73
O       6.28       8.15       7.29
O       4.03       8.24       7.56
O       6.45       6.25       5.14
O       4.18       6.43       5.28
O       6.12       4.19       7.12
O       3.85       4.25       7.15
O       6.60       6.12       9.31
O       4.34       5.96       9.36
