244

Zn      26.10       8.48      16.25
Zn       9.23       7.43      13.75
Zn       9.33       5.75      16.41
Zn      10.80       8.61      16.23
Zn      20.15       1.68      22.98
Zn      18.54       4.44      22.72
Zn      18.42       2.78      25.47
Zn      16.94       1.67      22.82
Zn      18.51      12.56       9.80
Zn      16.93      11.51       7.26
Zn      20.13      11.57       7.18
Zn      18.42      14.33       7.11
Zn       9.21      15.63       0.79
Zn       1.64       0.93       0.57
Zn      16.99       0.99       0.63
Zn      18.45      15.00      29.37
H      23.33       2.74      20.50
H      20.32       7.04      19.43
H      21.22       7.64      20.85
H      23.05       8.50      19.33
H      22.15       7.91      17.92
H      13.74       9.82       9.27
H      16.72      10.73      13.63
H      15.83      12.28      13.54
H      13.99      11.31      14.97
H      14.87       9.77      15.06
H      23.30       9.81       9.24
H      21.18      12.29      13.48
H      20.29      10.75      13.57
H      22.12       9.77      15.02
H      23.01      11.31      14.93
H      15.90       6.47      20.26
H      13.56       1.69      19.73
H      12.67       2.30      21.15
H      10.95       3.34      19.63
H      11.84       2.74      18.21
H      22.99       0.38      29.96
H      25.95      -0.51      25.59
H      34.30      15.36      25.67
H      23.22      -1.07      24.25
H      24.11       0.47      24.18
H      11.84      -1.03      26.45
H      14.15       1.52      30.55
H      15.05      -0.02      30.62
H      16.77       0.92      29.03
H      15.88       2.45      28.96
H      11.87      13.60       3.24
H       5.83       0.38       2.35
H       4.93       0.98       3.76
H       6.66      -0.05       5.29
H      16.80      16.78       3.88
H      13.74      -0.09       3.02
H      25.08      12.43       2.66
H      25.96      13.02       4.09
H      24.12      12.15       5.58
H      23.24      11.56       4.15
C      25.22       8.90      13.49
C       9.27       4.49      13.75
C      25.25       6.15      17.81
C      11.84       6.28      17.81
C      27.66      10.64      17.57
C      11.78       8.93      13.50
C      21.09       3.99      21.36
C      18.49       5.73      25.38
C      21.02       1.30      25.74
C      15.91       1.27      25.60
C      18.60      -0.43      21.58
C      15.96       3.99      21.32
C      15.97      11.13      10.03
C      18.53       9.42       5.92
C      21.07      11.13       9.98
C      21.01      13.90       5.66
C      18.46      15.52       9.82
C      15.93      13.83       5.69
C      11.81      16.07       2.15
C      18.64       3.06       1.92
C      25.22      16.09       2.18
C      25.23      -0.93      29.19
C      18.46      12.04      29.46
C      11.79      -0.96      29.15
C      26.59      12.64      18.84
C      28.90      14.97      20.34
C      27.65      11.88      18.36
C      27.84      15.74      20.81
C      28.44      13.84      19.62
C      27.04      13.77      19.56
C       9.25       3.08      11.58
C       9.26      -0.50      12.00
C       9.27       3.25      12.96
C       9.24      -0.68      10.62
C       9.26       0.87      12.35
C       9.24       1.71      11.23
C      22.15       4.54      20.46
C      24.23       5.54      18.72
C      22.11       5.83      19.94
C      24.27       4.23      19.27
C      23.12       6.30      19.10
C      23.26       3.75      20.11
C      21.32       7.12      19.89
C      22.46       7.66      18.94
C      14.91      10.57      10.91
C      12.81       9.47      12.57
C      14.94      10.67      12.30
C      12.78       9.38      11.15
C      13.92      10.14      13.09
C      13.80       9.91      10.36
C      15.73      11.19      13.49
C      14.57      10.58      14.39
C      22.12      10.57      10.87
C      24.20       9.46      12.55
C      22.08      10.67      12.26
C      24.24       9.37      11.13
C      23.09      10.13      13.06
C      23.23       9.91      10.33
C      21.29      11.20      13.44
C      22.43      10.58      14.35
C      14.91       4.57      20.45
C      12.91       5.76      18.70
C      13.77       3.88      20.04
C      14.07       6.47      19.12
C      12.82       4.46      19.21
C      15.03       5.89      19.96
C      13.03       2.56      20.14
C      11.95       3.21      19.19
C      18.50       8.31      25.71
C      18.46       9.47      29.13
C      18.49       6.98      26.15
C      18.47      10.79      28.70
C      18.47       8.56      28.04
C      18.49       9.21      26.80
C      24.16      -0.37      28.31
C      22.04       0.75      26.67
C      24.18      -0.46      26.92
C      22.03       0.83      28.09
C      23.16       0.09      26.14
C      23.05       0.29      28.87
C      24.96      -0.97      25.72
C      23.80      -0.35      24.84
C      12.83      -0.39      28.25
C      14.82       0.70      26.44
C      13.96       0.29      28.72
C      13.67       0.02      25.98
C      14.91       0.81      27.84
C      12.71      -0.51      26.85
C      14.69       0.77      29.95
C      15.77       1.36      28.96
C      17.45       7.43       4.66
C      19.73       5.06       3.17
C      18.52       8.18       5.13
C      18.66       4.31       2.70
C      19.30       6.20       3.88
C      17.90       6.29       3.94
C      12.85      15.50       3.04
C      14.85      14.34       4.79
C      13.98      16.22       3.45
C      13.69      13.62       4.37
C      14.93      15.65       4.29
C      12.74      14.19       3.53
C       5.48       0.12       3.35
C      15.79      16.90       4.31
C      24.15      15.53       3.06
C      22.04      14.51       4.76
C      24.18      14.24       3.57
C      22.01      15.83       4.22
C      23.16      13.76       4.39
C      23.04      16.32       3.41
C      24.97      12.95       3.62
C      23.82      12.40       4.56
S      29.20      12.54      18.79
S      26.28      15.08      20.37
S       9.29       1.74      13.83
S       9.22       0.84       9.75
S      18.47       6.85      27.89
S      18.48      10.92      26.96
S      20.07       7.50       4.69
S      17.12       4.99       3.13
Br      24.76      12.30      18.61
Br      30.73      15.31      20.56
Br       9.23       4.41      10.26
Br      18.51      15.58      13.31
Br      18.51       8.92      23.94
Br      18.45       8.85      30.90
Br      15.62       7.78       4.88
Br      21.56       4.70       2.94
Br      25.67       2.98      18.94
Br      11.37       8.56      10.16
Br      25.64       8.52      10.15
Br      14.47       8.26      18.59
Br      20.63       1.66      29.09
Br      13.26      -0.25      24.13
Br      13.30      11.83       4.91
Br      20.60      17.07       4.53
O      27.76       7.58      15.70
O      24.98       9.07      14.74
O       9.20       5.59      13.11
O      26.26       5.45      17.49
O      26.23       8.32      12.99
O      25.01       7.35      17.43
O       9.35       4.35      15.02
O      10.91       5.44      17.52
O      28.83      10.20      17.26
O      11.91       7.48      17.40
O      26.54      10.12      17.26
O      10.86       8.20      13.02
O      11.92       9.24      14.74
O      18.52       2.64      23.50
O      21.26       2.80      21.81
O      18.54       5.82      24.11
O      20.01       1.92      26.22
O      20.10       4.76      21.60
O      21.25       1.10      24.49
O      18.42       4.65      26.07
O      16.80       1.95      26.22
O      17.44       0.06      21.81
O      15.88       1.05      24.35
O      19.72       0.05      21.95
O      16.94       4.75      21.63
O      15.80       2.78      21.68
O      18.53      12.50       7.84
O      16.95      11.71      10.61
O      17.39       9.89       6.27
O      21.22      11.00       8.72
O      15.82      10.97       8.77
O      20.09      11.70      10.57
O      19.68       9.92       6.17
O      21.22      12.68       5.99
O      18.42      15.68       8.55
O      20.03      14.62       6.02
O      18.51      14.41      10.44
O      15.88      12.61       6.04
O      16.83      14.67       6.02
O      18.47      15.14      31.33
O      10.80      15.32       1.89
O      19.76       2.55       1.59
O      15.86      -0.12       1.80
O      12.00      17.26       1.73
O      26.18      15.30       1.89
O      17.48       2.60       1.64
O      25.11      -0.74      30.44
O      18.45      13.12      28.77
O      26.17      -1.56      28.60
O      18.45      11.95      30.73
O      11.98      -0.79      30.40
O      10.81      -1.56      28.60
