180

Cd       4.93      16.19       8.54
Cd       8.98       8.46      18.20
Cd       7.32       0.24      10.79
Cd       3.27       7.97       1.12
H       3.96      10.93       2.10
H       9.95      13.72      11.76
H       8.30       5.50      17.22
H       2.30       2.71       7.56
H       3.43      12.50       3.97
H      10.48      12.14      13.64
H       8.82       3.92      15.35
H       1.77       4.29       5.69
H       9.23       9.80       5.16
H       4.68      14.84      14.82
H       3.03       6.63      14.16
H       7.57       1.58       4.50
H       9.89       8.33       3.22
H       4.02      16.32      12.88
H       2.36       8.10      16.10
H       8.23       0.11       6.44
H       8.24      12.39       9.53
H       5.67      12.25      19.19
H       4.01       4.04       9.79
H       6.59       4.18       0.13
H       7.50      13.67       8.59
H       6.41      10.97      18.26
H       4.76       2.75      10.73
H       5.84       5.46       1.07
H       7.25      11.97       8.10
H       6.66      12.67      17.77
H       5.01       4.46      11.22
H       5.59       3.75       1.56
H       6.88       8.91       1.29
H       7.03      15.73      10.95
H       5.37       7.52      18.03
H       5.23       0.70       8.37
H       6.38      10.54       3.08
H       7.53      14.11      12.74
H       5.87       5.89      16.24
H       4.73       2.32       6.58
H       9.54      13.05       1.51
H       4.37      11.60      11.17
H       2.72       3.38      17.82
H       7.88       4.83       8.16
H       9.91      11.29      19.07
H       4.00      13.35       9.40
H       2.34       5.14       0.26
H       8.25       3.07       9.92
H       5.40       0.43       4.40
H       5.19       7.78      14.06
H       6.85      16.00      14.93
H       7.06       8.65       5.26
H      10.11      15.77       4.62
H       3.80       8.87      14.28
H       2.15       0.66      14.70
H       8.45       7.56       5.04
H       9.05      16.22       6.01
H       4.86       8.42      15.67
H       3.20       0.21      13.31
H       7.39       8.00       3.65
C       3.16      10.72       2.81
C      10.75      13.92      12.47
C       9.10       5.71      16.51
C       1.50       2.50       6.85
C       2.86      11.58       3.85
C      11.05      13.06      13.51
C       9.40       4.84      15.47
C       1.20       3.37       5.81
C      10.75      11.26       4.74
C       3.16      13.38      14.40
C       1.50       5.17      14.59
C       9.10       3.05       4.92
C      10.04      10.07       4.50
C       3.87      14.57      14.16
C       2.21       6.36      14.82
C       8.39       1.86       5.16
C      10.41       9.26       3.43
C       3.50      15.38      13.10
C       1.84       7.17      15.89
C       8.75       1.05       6.23
C      10.38      12.08       5.88
C       3.53      12.56      15.54
C       1.87       4.34      13.44
C       8.72       3.87       3.78
C      10.22      13.65       7.72
C       3.69      10.99      17.39
C       2.03       2.78      11.60
C       8.57       5.44       1.94
C       9.16      12.75       7.62
C       4.75      11.89      17.28
C       3.09       3.68      11.70
C       7.50       4.54       2.04
C      10.45      14.71       8.72
C       3.46       9.93      18.38
C       1.80       1.71      10.60
C       8.79       6.50       0.94
C       7.96      12.69       8.51
C       5.95      11.95      18.17
C       4.29       3.74      10.82
C       6.31       4.47       1.15
C       7.45       9.84       1.36
C       6.46      14.81      11.03
C       4.80       6.59      17.96
C       5.80       1.62       8.30
C       7.17      10.76       2.36
C       6.74      13.88      12.02
C       5.08       5.67      16.96
C       5.52       2.55       7.30
C       7.93      11.94       2.44
C       5.98      12.70      12.10
C       4.32       4.49      16.88
C       6.27       3.73       7.22
C       8.93      12.14       1.47
C       4.98      12.50      11.14
C       3.32       4.29      17.85
C       7.28       3.93       8.19
C       9.14      11.17       0.51
C       4.77      13.47      10.17
C       3.11       5.26      18.81
C       7.49       2.96       9.15
C       7.74      12.96       3.47
C       6.17      11.68      13.13
C       4.51       3.47      15.85
C       6.09       4.74       6.19
C       7.07      14.41       5.31
C       6.84      10.23      14.97
C       5.18       2.02      14.01
C       5.41       6.19       4.35
C       8.23      14.79       4.64
C       5.68       9.86      14.31
C       4.02       1.64      14.68
C       6.58       6.57       5.02
C       6.37      15.05       6.45
C       7.54       9.59      16.11
C       5.88       1.38      12.87
C       4.71       6.83       3.21
C       9.08      15.98       4.95
C       4.83       8.67      14.61
C       3.17       0.45      14.38
C       7.42       7.76       4.72
S      11.37      13.37       6.47
S       2.54      11.27      16.13
S       0.88       3.06      12.85
S       9.71       5.16       3.19
S       6.44      12.97       4.61
S       7.47      11.67      14.27
S       5.82       3.46      14.72
S       4.78       4.75       5.06
N       2.48       9.57       2.60
N      11.43      15.07      12.26
N       9.77       6.86      16.72
N       0.82       1.36       7.06
N       9.28      11.87       6.58
N       4.63      12.77      16.24
N       2.98       4.56      12.74
N       7.62       3.66       3.08
N       8.43      10.03       0.46
N       5.48      14.61      10.12
N       3.83       6.40      18.87
N       6.77       1.82       9.21
N       8.59      13.97       3.62
N       5.32      10.68      13.28
N       3.66       2.46      15.71
N       6.93       5.75       6.05
O      11.52      15.41       8.65
O       2.39       9.23      18.32
O       0.73       1.02      10.67
O       9.87       7.20       1.01
O       9.56      14.90       9.62
O       4.35       9.75      19.28
O       2.69       1.53       9.71
O       7.90       6.68       0.04
O       5.25      14.54       6.80
O       8.66      10.10      16.46
O       7.00       1.89      12.52
O       3.59       6.33       2.86
O       6.90      16.05       7.02
O       7.01       8.59      16.68
O       5.35       0.37      12.31
O       5.24       7.84       2.64
