78

Zn       5.04       7.20      11.81
Zn       7.82       7.25      11.83
H       4.23       7.29      18.55
H       8.60       7.19       5.08
H       8.53       7.25      18.61
H       4.30       7.19       5.06
H       4.27       7.27      16.04
H       8.59       7.20       7.59
H       8.56       7.22      16.10
H       4.30       7.20       7.57
H       7.88      11.47       0.95
H       7.27      10.71       2.41
H       5.61       3.75      21.24
H       5.86       2.79      22.69
H       5.13       2.95       0.85
H       5.74       3.70       2.32
H       7.24      10.74      21.32
H       7.13      11.66      22.81
C       6.38       9.84      11.83
C       6.48       4.61      11.82
C       6.43       7.23      14.42
C       6.43       7.22       9.22
C       6.24       5.98       2.84
C       6.69       8.47      20.81
C       6.70       8.43       2.87
C       6.07       6.05      20.78
C       6.70       8.44       1.41
C       6.10       6.04      22.24
C       6.22       6.01       1.38
C       6.71       8.44      22.27
C       6.44       7.24       0.69
C       6.41       7.23      22.96
C       7.00       9.64       0.72
C       5.87       4.82      22.92
C       5.94       4.82       0.67
C       7.01       9.62      22.97
C       5.17       7.28      18.00
C       7.66       7.19       5.63
C       7.60       7.25      18.03
C       5.24       7.19       5.62
C       5.20       7.27      16.61
C       7.66       7.20       7.02
C       7.62       7.24      16.64
C       5.23       7.20       7.01
C       6.42       7.24      15.92
C       6.44       7.20       7.72
C       6.38       7.27      18.70
C       6.45       7.19       4.94
C       6.36      11.29      11.84
C       6.50       3.17      11.83
C       6.33      12.51      11.85
C       6.54       1.94      11.84
C       6.29      13.85      11.85
C       6.57       0.60      11.85
C      11.07       7.25      11.83
C       1.80       7.21      11.83
C      12.41       7.23      11.83
C       0.45       7.22      11.84
N       6.46       7.20       3.50
N       6.37       7.27      20.15
N       9.90       7.26      11.83
N       2.97       7.19      11.83
N       7.25      10.81       1.38
N       5.57       3.66      22.27
N       5.75       3.62       1.30
N       7.33      10.78      22.34
O       5.25       9.26      11.82
O       7.61       5.19      11.82
O       5.32       5.16      11.81
O       7.53       9.30      11.84
O       5.30       7.21      13.83
O       7.56       7.25       9.81
O       5.29       7.21       9.80
O       7.58       7.23      13.85
O       6.07       4.95       3.53
O       6.93       9.48      20.12
O       6.89       9.44       3.58
O       5.80       5.06      20.07
