72

Al       0.83       7.97       8.29
Al       4.18       8.00       8.34
Al       4.12      14.69       0.02
Al       0.77       1.28      16.61
H       4.18       6.62      12.41
H       0.84       9.34       4.22
H       2.13       3.04      12.81
H       5.48      12.92       3.82
H       0.77       3.26      10.05
H       4.12      12.70       6.58
H       0.98       1.85      12.12
H       4.33      14.11       4.51
H       2.50       6.35       8.91
H       5.85       9.62       7.71
H       2.47       2.99      16.29
H       5.82      12.98       0.34
C       2.48       9.76       9.97
C       5.83       6.21       6.66
C       2.51       9.39       6.36
C       5.86       6.58      10.27
C       0.10       4.64      11.63
C       3.45      11.32       5.00
C       5.88       5.68      11.47
C       2.53      10.28       5.16
C       4.92       5.83      12.48
C       1.58      10.14       4.14
C       4.87       4.96      13.58
C       1.52      11.01       3.05
C       5.79       3.89      13.74
C       2.44      12.08       2.89
C       0.06       3.80      12.73
C       3.41      12.17       3.89
C       1.19       2.92      12.25
C       4.54      13.04       4.38
C       1.14       3.79      10.94
C       4.49      12.17       5.69
C       5.80       2.60       2.86
C       2.45      13.37      13.76
C       5.80       3.44       3.75
C       2.46      12.52      12.88
C       5.81       4.37       4.73
C       2.46      11.59      11.90
C       5.81       5.22       5.61
C       2.46      10.75      11.02
C       2.43      13.07       1.78
C       5.78       2.89      14.84
C       2.45      14.33      14.84
C       5.80       1.63       1.79
Cl       3.63       5.27      14.75
Cl       0.29      10.70       1.88
Cl       2.69       4.54      10.45
Cl       6.04      11.42       6.18
O       3.64       9.11       6.88
O       0.29       6.85       9.75
O       1.35       9.38       9.52
O       4.70       6.59       7.11
O       1.37       9.00       6.77
O       4.72       6.96       9.86
O       0.29       6.58       7.04
O       3.64       9.38       9.59
O       2.51       7.19       8.43
O       5.86       8.77       8.20
O       1.30      14.72      15.24
O       4.65       1.25       1.39
O       3.58      13.46       1.38
O       0.23       2.50      15.24
O       3.59      14.68      15.28
O       0.24       1.28       1.34
O       4.66       2.49      15.28
O       1.31      13.48       1.35
O       2.45       2.07      16.60
O       5.80      13.90       0.03
