244

Zn      26.10       8.48      16.25
Zn       9.23       7.43      13.75
Zn       9.33       5.74      16.41
Zn      10.80       8.61      16.23
Zn      20.13       1.65      22.96
Zn      18.54       4.44      22.73
Zn      18.42       2.78      25.47
Zn      16.93       1.68      22.84
Zn      18.51      12.60       9.80
Zn      16.93      11.51       7.26
Zn      20.13      11.56       7.19
Zn      18.42      14.32       7.09
Zn       9.22      15.61       0.76
Zn       1.62       0.96       0.59
Zn      16.97       0.97       0.62
Zn      18.45      15.02      29.38
H      29.89      15.30      20.53
H      18.50      16.06      12.60
H      23.33       2.73      20.50
H      20.32       7.03      19.43
H      21.21       7.62      20.86
H      23.04       8.49      19.34
H      22.14       7.90      17.92
H      13.75       9.83       9.28
H      16.72      10.73      13.64
H      15.83      12.27      13.56
H      13.99      11.30      14.97
H      14.87       9.75      15.06
H      23.29       9.82       9.25
H      21.18      12.28      13.50
H      20.28      10.74      13.58
H      22.11       9.76      15.02
H      23.00      11.30      14.94
H      15.90       6.48      20.26
H      13.57       1.70      19.73
H      12.68       2.30      21.16
H      10.95       3.34      19.63
H      11.84       2.74      18.21
H      18.47       9.28      30.18
H      22.98       0.38      29.95
H      25.96      -0.51      25.59
H      34.31      15.37      25.67
H      23.23      -1.08      24.25
H      24.12       0.47      24.17
H      11.85      -1.02      26.48
H      14.18       1.52      30.57
H      15.07      -0.02      30.64
H      16.79       0.91      29.04
H      15.90       2.45      28.97
H      20.71       4.72       2.96
H      11.86      13.61       3.23
H       5.83       0.38       2.34
H       4.93       0.98       3.76
H       6.66      -0.06       5.29
H      16.79      16.77       3.87
H      13.75      -0.11       3.02
H      25.08      12.40       2.67
H      25.97      13.00       4.10
H      24.12      12.15       5.60
H      23.24      11.54       4.17
C      25.21       8.90      13.49
C       9.27       4.48      13.75
C      25.25       6.15      17.82
C      11.84       6.28      17.80
C      27.67      10.64      17.57
C      11.78       8.93      13.50
C      21.09       3.97      21.36
C      18.48       5.72      25.40
C      21.01       1.29      25.72
C      15.91       1.28      25.61
C      18.57      -0.44      21.58
C      15.96       4.00      21.33
C      15.98      11.14      10.03
C      18.53       9.42       5.91
C      21.06      11.15       9.99
C      21.01      13.89       5.65
C      18.46      15.55       9.78
C      15.92      13.82       5.68
C      11.80      16.07       2.15
C      18.60       3.07       1.93
C      25.22      16.06       2.17
C      25.22      -0.93      29.19
C      18.46      12.05      29.43
C      11.79      -0.94      29.18
C      26.58      12.63      18.84
C      28.86      15.00      20.35
C      27.65      11.88      18.36
C      27.78      15.73      20.80
C      28.42      13.87      19.63
C      27.02      13.76      19.56
C       9.25       3.10      11.57
C       9.26      -0.50      11.94
C       9.27       3.25      12.96
C       9.24      -0.63      10.56
C       9.26       0.86      12.31
C       9.25       1.73      11.21
C      22.14       4.52      20.46
C      24.23       5.54      18.72
C      22.10       5.81      19.94
C      24.27       4.23      19.27
C      23.11       6.29      19.10
C      23.26       3.74      20.11
C      21.31       7.11      19.89
C      22.46       7.65      18.94
C      14.92      10.58      10.92
C      12.81       9.47      12.57
C      14.95      10.67      12.31
C      12.79       9.38      11.15
C      13.93      10.13      13.09
C      13.81       9.92      10.36
C      15.73      11.18      13.50
C      14.57      10.57      14.39
C      22.11      10.58      10.88
C      24.19       9.45      12.55
C      22.07      10.67      12.27
C      24.23       9.36      11.13
C      23.08      10.12      13.06
C      23.22       9.91      10.33
C      21.28      11.19      13.45
C      22.42      10.57      14.36
C      14.91       4.58      20.45
C      12.91       5.76      18.70
C      13.77       3.88      20.05
C      14.08       6.47      19.12
C      12.82       4.46      19.21
C      15.03       5.90      19.96
C      13.03       2.56      20.15
C      11.95       3.21      19.20
C      18.50       8.30      25.71
C      18.47       9.52      29.12
C      18.49       6.98      26.16
C      18.47      10.82      28.64
C      18.48       8.59      28.05
C      18.49       9.21      26.79
C      24.16      -0.37      28.31
C      22.04       0.74      26.66
C      24.19      -0.46      26.92
C      22.02       0.82      28.08
C      23.16       0.08      26.14
C      23.04       0.29      28.87
C      24.97      -0.96      25.72
C      23.81      -0.35      24.83
C      12.84      -0.38      28.28
C      14.83       0.70      26.46
C      13.97       0.29      28.74
C      13.67       0.01      26.00
C      14.92       0.81      27.85
C      12.72      -0.51      26.88
C      14.71       0.78      29.97
C      15.79       1.36      28.97
C      17.44       7.44       4.66
C      19.68       5.03       3.16
C      18.52       8.18       5.13
C      18.59       4.31       2.71
C      19.27       6.18       3.87
C      17.86       6.30       3.94
C      12.85      15.51       3.04
C      14.84      14.34       4.79
C      13.97      16.22       3.44
C      13.69      13.62       4.37
C      14.93      15.64       4.29
C      12.73      14.19       3.52
C       5.47       0.11       3.35
C      15.79      16.89       4.30
C      24.16      15.51       3.05
C      22.05      14.50       4.76
C      24.19      14.22       3.57
C      22.02      15.82       4.22
C      23.17      13.75       4.40
C      23.05      16.30       3.40
C      24.97      12.93       3.63
C      23.82      12.39       4.57
S      29.19      12.57      18.80
S      26.23      15.06      20.37
S       9.29       1.73      13.80
S       9.22       0.89       9.71
S      18.48       6.87      27.90
S      18.49      10.93      26.90
S      20.05       7.48       4.68
S      17.05       5.01       3.14
Br      25.68       2.98      18.95
Br      11.39       8.56      10.16
Br      25.63       8.51      10.15
Br      14.48       8.26      18.59
Br      20.61       1.64      29.07
Br      13.26      -0.26      24.16
Br      13.29      11.83       4.90
Br      20.62      17.07       4.54
Cl      24.92      12.28      18.62
Cl       9.24       4.34      10.40
Cl      18.51       8.82      24.09
Cl      15.78       7.80       4.87
O      27.76       7.58      15.70
O      24.97       9.06      14.74
O       9.20       5.58      13.11
O      26.26       5.45      17.49
O      26.23       8.32      12.99
O      25.00       7.35      17.43
O       9.35       4.34      15.03
O      10.91       5.44      17.52
O      28.83      10.21      17.26
O      11.91       7.48      17.40
O      26.55      10.11      17.26
O      10.86       8.20      13.01
O      11.92       9.23      14.74
O      18.52       2.63      23.51
O      21.24       2.78      21.78
O      18.54       5.82      24.13
O      20.02       1.92      26.21
O      20.11       4.75      21.61
O      21.23       1.07      24.48
O      18.42       4.65      26.09
O      16.82       1.93      26.23
O      17.42       0.07      21.83
O      15.86       1.08      24.36
O      19.71       0.02      21.92
O      16.94       4.76      21.64
O      15.79       2.79      21.70
O      18.53      12.50       7.84
O      16.94      11.74      10.61
O      17.40       9.89       6.27
O      21.21      11.00       8.73
O      15.83      10.97       8.78
O      20.09      11.74      10.58
O      19.68       9.92       6.17
O      21.23      12.68       6.01
O      18.42      15.67       8.51
O      20.01      14.60       5.99
O      18.50      14.46      10.45
O      15.87      12.60       6.04
O      16.82      14.67       6.00
O      18.48      15.13      31.34
O      10.81      15.31       1.86
O      19.74       2.59       1.62
O      25.09      17.27       1.79
O      11.98      17.27       1.76
O      26.18      15.27       1.87
O      17.45       2.58       1.63
O      25.09      -0.75      30.44
O      18.45      13.15      28.77
O      26.18      -1.54      28.60
O      18.45      11.93      30.70
O      11.98      -0.76      30.43
O      10.81      -1.54      28.63
