86

Zn       6.13       7.67       8.55
Zn       6.17      10.57       8.43
H       7.53      12.65       9.85
H       7.76      15.15       9.87
H       4.64      15.30       6.89
H       7.64       2.95      10.20
H       4.45       3.06       7.30
H       4.69       5.57       7.27
H       6.17      11.51      12.50
H       6.23      11.82      14.98
H       6.13       7.55      15.48
H       6.12      10.70       1.51
H       6.04       6.44       2.00
H       6.10       6.75       4.49
H       3.21      11.00      10.19
H       9.35      11.15      10.35
H      10.36       7.46       7.45
H       1.76       7.38       7.37
H       4.07      11.67       7.13
H       3.61      13.16       6.34
H       8.22       6.58       9.88
H       8.68       5.11      10.70
H       6.05       6.83      11.91
H       5.94       6.17      13.53
H       6.29      11.42       5.08
H       6.31      12.09       3.45
C       6.08       9.28      11.10
C       8.80       9.19       8.67
C       6.20       8.98       5.89
C       3.51       9.02       8.47
C       6.92      13.28       9.20
C       7.05      14.66       9.21
C       6.22      15.39       8.34
C       5.29      14.73       7.54
C       5.20      13.32       7.61
C       6.98       3.51       9.54
C       6.04       2.85       8.77
C       5.18       3.57       7.91
C       5.32       4.94       7.90
C       7.08       4.92       9.44
C       6.13       9.37      12.57
C       6.17      10.65      13.17
C       6.19      10.83      14.53
C       6.17       9.69      15.36
C       6.14       8.41      14.80
C       6.13       8.21      13.41
C       6.12       9.85       2.18
C       6.08       8.57       1.63
C       6.07       7.43       2.45
C       6.10       7.61       3.82
C       6.15       8.89       4.42
C       6.15      10.05       3.58
C       2.02       9.09       8.62
C       1.38      10.09       9.42
C       1.25       8.15       7.95
C       2.12      11.02      10.19
C       1.48      11.95      10.97
C      10.30       9.16       8.73
C      10.96       8.19       8.00
C      11.05      10.12       9.48
C      10.43      11.09      10.31
C      11.18      11.99      11.02
N       6.04      12.62       8.41
N       6.22      16.80       8.20
N       6.04       1.43       8.93
N       6.23       5.62       8.64
N       6.18       9.71      16.77
N       6.06       8.55       0.21
N       4.30      12.63       6.86
N       8.00       5.62      10.15
N       6.15       6.94      12.91
N       6.14      11.32       4.08
N       2.32      12.79      11.85
N      10.45      13.08      11.69
O       6.12       8.11      10.55
O       6.00      10.37      10.43
O       8.23      10.32       8.61
O       8.22       8.05       8.64
O       6.33      10.14       6.44
O       6.11       7.89       6.56
O       4.04       7.89       8.59
O       4.11      10.13       8.23
O       3.33      13.30      11.35
O       1.96      12.88      13.03
O       9.34      12.82      12.17
O      10.97      14.21      11.66
