122

Al       0.85       7.41      11.95
Al       4.20       7.40      11.97
Al       4.46      22.51       0.03
Al       1.11      22.52       0.02
H       4.03      19.69       2.83
H       3.85      17.82       4.41
H       1.40      17.07       3.91
H       1.19      16.44       6.02
H       1.14      14.47       7.48
H       3.85      13.52       6.08
H       3.90      15.50       4.62
H       3.71      12.71       8.18
H       3.74      10.72       9.68
H       1.30      10.32       9.09
H       1.28      12.26       7.54
H       0.71      -3.30      18.92
H       4.39      -1.94      20.74
H       4.37      -3.95      22.20
H       4.67      -1.21      18.56
H       4.65       0.75      17.07
H       0.36       0.95      17.42
H       0.39      -1.01      18.91
H       0.64       1.56      15.21
H       4.30       4.91      15.30
H       4.32       3.04      16.93
H       3.03      19.21       0.71
H       1.33      18.87       0.32
H       3.29      16.87       1.59
H       1.60      16.52       1.16
H       1.86       9.28      22.65
H       2.89       7.99      23.30
H       3.55       9.62      23.08
H       2.52       9.00      12.65
H       5.88       5.64      11.69
H       2.51      13.40      23.01
H       6.14       1.61       0.67
C       2.55       6.10       9.94
C       2.47       5.51      13.46
C       5.83       8.71      14.01
C       5.88       9.27      10.44
C       4.91      19.10       3.06
C       4.81      18.04       3.95
C       5.95      17.28       4.29
C       0.50      17.64       3.70
C       0.61      18.70       2.81
C       6.13      19.46       2.46
C       0.31      15.79       6.01
C       0.29      14.67       6.84
C       5.84      13.83       6.89
C       4.73      14.17       6.09
C       4.75      15.29       5.26
C       5.89      16.12       5.20
C       4.65      12.17       8.36
C       4.66      11.07       9.21
C       5.86      10.41       9.49
C       0.37      10.85       8.88
C       0.35      11.94       8.03
C       5.83      12.64       7.76
C       5.86      12.84      20.63
C       5.87      12.20      19.59
C       5.88      11.49      18.45
C       5.87      10.83      17.41
C       5.87      10.11      16.28
C       5.85       9.46      15.24
C       2.55       5.35       8.71
C       2.59       4.70       7.68
C       2.65       3.99       6.54
C       2.71       3.33       5.50
C       2.76       2.62       4.36
C       2.80       1.97       3.32
C       1.53      -4.51      20.47
C       1.51      -3.40      19.65
C       2.54      -2.45      19.73
C       3.58      -2.67      20.65
C       3.57      -3.79      21.48
C       2.54      -4.73      21.42
C       3.73      -0.72      18.33
C       3.71       0.38      17.49
C       2.50       1.00      17.13
C       1.31       0.47      17.65
C       1.32      -0.64      18.49
C       2.53      -1.26      18.85
C       1.44       2.30      15.28
C       1.45       3.35      14.37
C       2.47       4.31      14.36
C       3.50       4.17      15.30
C       3.51       3.11      16.20
C       2.48       2.15      16.21
C       2.52      -5.84      22.42
C       2.81       1.23       2.09
C       6.15      20.61       1.51
C       5.84      13.58      21.87
C       2.17      18.60       0.98
C       2.49      17.11       0.87
C       2.65       9.05      23.38
N       0.48      -5.52      20.22
N       0.38       3.36      13.36
O       3.61       5.88      13.02
O       1.42       6.31      10.49
O       0.35       8.76      10.71
O       1.35       6.05      13.23
O       0.28       8.53      13.44
O       3.69       6.48      10.36
O       2.52       8.20      12.11
O       4.69       8.31      13.61
O       4.77       8.89      10.94
O       5.86       6.60      11.87
O       1.68       0.99       1.56
O       3.65      -6.21      22.87
O       4.70      13.90      22.33
O       3.95       0.89       1.63
O       5.01      21.01       1.08
O       1.37      -6.26      22.78
O       2.52      14.04      23.75
O       0.60      21.11       1.18
O       0.30      13.81      22.40
O       6.14       0.79       0.16
O       0.83      15.85      20.01
O       5.99      -5.11      20.17
O       5.91       3.09      13.77
O       0.68       3.58      12.19
O       1.87      18.98       2.34
