110

Al       4.16      -7.33      12.69
Al       0.00       7.33       4.23
H       2.04      11.65       9.22
H       2.12      13.81       5.48
H       2.12      15.50      11.45
H       2.04      17.66       7.70
H       2.04       0.85       5.48
H       2.12       3.01       9.22
H       2.12      -3.01       7.70
H       2.04      -0.85      11.45
H       2.04      -5.17      23.38
H       2.12      -9.49      23.37
H       2.12      -5.17      18.92
H       2.04      -9.49      18.93
C       2.08      -7.33      14.74
C       2.08      20.20      11.67
C       2.08      -5.55      11.67
C       2.08       9.10       5.26
C       2.08       5.55       5.26
C       2.08       7.33       2.18
C       2.08      10.42       6.01
C       2.10      10.48       7.43
C       2.07      11.68       8.13
C       2.08      12.90       7.45
C       2.09      12.88       6.05
C       2.06      11.67       5.36
C       2.08      14.13       8.16
C       2.08      15.18       8.77
C       2.08      16.40       9.47
C       2.09      16.43      10.88
C       2.06      17.64      11.56
C       2.08      18.89      10.91
C       2.10      18.83       9.50
C       2.07      17.63       8.79
C       2.08       4.24       6.01
C       2.10       2.98       5.36
C       2.07       1.77       6.05
C       2.08       1.75       7.45
C       2.09       2.98       8.13
C       2.06       4.17       7.43
C       2.08       0.53       8.16
C       2.08      -0.53       8.77
C       2.08      -1.75       9.47
C       2.09      -2.98       8.79
C       2.06      -4.17       9.50
C       2.08      -4.24      10.91
C       2.10      -2.98      11.56
C       2.07      -1.77      10.87
C       2.08       7.33       0.66
C       2.10      -6.14      25.28
C       2.07      -6.12      23.89
C       2.08      -7.33      23.17
C       2.09      -8.53      23.89
C       2.06      -8.52      25.28
C       2.08      -7.33      21.76
C       2.08      -7.33      20.54
C       2.08      -7.33      19.13
C       2.09      -6.12      18.41
C       2.06      -6.14      17.02
C       2.08      -7.33      16.26
C       2.10      -8.52      17.02
C       2.07      -8.53      18.41
N       2.15       9.28       8.31
N       2.02      11.83       3.88
N       2.02      17.47      13.04
N       2.15      20.03       8.61
N       2.15       2.82       3.88
N       2.02       5.38       8.31
N       2.02      23.93       8.61
N       2.15      -2.82      13.04
N       2.15       9.88       0.50
N       2.02       4.77       0.50
N       2.02      -4.77      16.42
N       2.15      19.43      16.42
O       1.08      -6.31      11.50
O       1.08      -6.80      14.17
O       1.08      20.44      12.41
O       3.08      -5.78      12.41
O       3.08      20.96      11.50
O       3.08      -7.85      14.17
O       1.09       6.80       2.75
O       1.09       8.87       4.51
O       1.09       6.31       5.42
O       3.08       7.85       2.75
O       3.08       5.78       4.52
O       3.08       8.35       5.42
O       3.01       8.43       8.09
O       1.33       9.27       9.24
O       1.15      11.22       3.26
O       2.83      12.64       3.41
O       1.15      18.09      13.66
O       2.83      16.67      13.51
O       3.01      20.87       8.84
O       1.34      20.03       7.68
O       3.01       3.43       3.26
O       1.33       2.02       3.41
O       1.15       6.22       8.09
O       2.83       5.38       9.24
O       1.15      23.09       8.83
O       2.83      23.93       7.68
O       3.01      -3.43      13.66
O       1.33      -2.01      13.51
O       3.01      10.11       1.35
O       1.33      10.69       0.04
O       1.15       4.54       1.34
O       2.83       3.96       0.04
O       1.15      -4.54      15.58
O       2.83      -3.96      16.88
O       3.01      19.19      15.58
O       1.33      18.61      16.88
