202

Zn      12.81      14.78       8.73
Zn      18.67      -4.96       9.27
Zn      -3.21      -6.41      11.44
Zn      -2.00      -5.27       8.69
Zn      -3.18      13.06       0.84
Zn      12.78      -0.70      17.16
Zn      -1.96      10.21       0.26
Zn      18.63      10.51       0.80
H      -6.47      16.17       5.70
H      16.10      11.70       3.85
H      -5.12      15.17       3.83
H      14.71      12.72       5.68
H      -5.10      -4.95      14.83
H      14.72      -2.08      13.77
H      -6.49      -3.97      16.68
H      16.08      -3.11      11.92
H      -9.75       6.81      17.08
H      12.28       4.92      13.63
H      -9.55      10.61      14.90
H      12.07       8.82      11.62
H      18.06       4.53       3.70
H      -1.39       4.54       3.71
H      18.07       0.59       5.62
H      -1.40       0.79       6.00
H       2.43      15.44       3.54
H       3.51      11.29       3.92
H       6.01      16.56       5.82
H       7.28      12.46       5.83
H       7.16      -1.68      13.70
H       6.08      -4.24      16.98
H       3.59      -3.01      11.51
H       2.30      -5.21      14.97
H      -9.32       5.79      18.94
H      -8.66       4.14      18.79
H      -3.21      16.63       0.36
H      11.84       2.81      13.48
H      11.19       2.05      14.94
H      12.81       1.64      14.41
H      -3.03      -8.85      14.35
H      -8.69      13.66      13.32
H      -8.78      12.72      14.83
H      12.62      11.01       9.22
H      11.20      11.79       9.90
H      11.29      10.01       9.87
H      16.84       6.12       2.90
H      17.43       6.88       1.39
H      17.45       7.80       2.89
H      -0.17       6.08       2.82
H      -0.76       7.75       2.99
H      -0.79       7.00       1.41
H      17.33      -1.66       7.91
H      17.65      -2.78       6.60
H      16.88      -1.22       6.24
H      -0.66      -2.35       6.66
H      -0.98      -1.85       8.31
H      -0.21      -0.71       7.18
H      -0.79      15.21       2.88
H      -0.22      15.05       1.22
H       0.65      16.13       2.35
H       1.58       9.91       1.63
H       0.42       9.88       2.94
H       2.14       9.62       3.30
H       7.12      18.19       6.71
H       8.89      18.12       6.53
H      15.25      -4.79       8.12
H       9.16      11.77       6.64
H       9.71      12.55       8.14
H      10.58      12.85       6.64
H      10.38      -1.25      14.25
H       9.81       0.05      15.28
H       8.95      -0.31      13.76
H      15.08       9.20       0.32
H       9.18      -4.18      18.69
H       7.45      -4.63      18.72
H       2.49      -2.90       9.66
H       0.72      -2.76       9.81
H       1.42      -4.24       9.17
H       0.42      -6.25      15.12
H      -0.12      -7.10      13.65
H      -0.99      -5.68      14.19
C      10.13      15.60       7.81
C      -5.49      -4.69      12.17
C      13.13      13.35      11.27
C      -0.54      -5.20      11.25
C      -8.65      15.10       6.90
C      20.21      -2.95       7.80
C      13.14       2.21      17.35
C      -8.65      -2.37      16.42
C      -0.50      12.28       1.74
C      20.21       8.19       1.72
C      -5.49      12.78       2.64
C      10.10      -1.88      17.33
C      -7.83      14.50       5.80
C      -6.31      13.38       3.74
C      -6.73      15.20       5.28
C      16.34      12.68       4.26
C      -5.97      14.64       4.25
C      15.58      13.24       5.27
C      -6.31      -4.09      13.27
C      -7.84      -2.97      15.33
C      -5.97      -4.33      14.61
C      15.58      -2.71      13.99
C      -6.74      -3.78      15.63
C      16.33      -3.28      12.96
C      13.14       3.52      16.63
C     -10.12       4.70      17.28
C     -10.13       5.91      16.59
C     -10.61       6.01      15.28
C      12.65       4.85      14.65
C      12.64       3.62      15.29
C     -10.61       7.26      14.60
C      13.13       8.33      14.01
C      13.13       9.57      13.34
C     -10.02      10.70      13.92
C     -10.02      11.94      13.27
C      13.13      12.04      11.98
C      12.54      10.90      11.37
C      12.54       9.69      12.07
C      20.21       6.88       2.43
C      18.97       6.25       2.78
C      19.00       5.02       3.44
C      20.21       4.39       3.79
C      -2.33       5.02       3.45
C      -2.31       6.25       2.78
C      -3.54       3.15       4.47
C      -3.54       2.08       5.05
C      -3.54       0.84       5.73
C      19.01       0.15       5.97
C      18.98      -1.07       6.65
C      20.21      -1.64       7.08
C      -2.31      -0.97       6.84
C      -2.33       0.26       6.18
C       0.75      12.67       2.45
C       1.02      14.04       2.70
C       2.20      14.39       3.36
C       3.11      13.41       3.81
C       2.81      12.06       3.57
C       1.66      11.67       2.89
C       4.29      13.78       4.48
C       5.32      14.10       5.07
C       6.50      14.47       5.74
C       6.75      15.81       6.09
C       7.91      16.20       6.75
C       8.88      15.21       7.10
C       8.64      13.84       6.76
C       7.46      13.50       6.09
C       8.84      -2.27      16.61
C       8.57      -1.73      15.33
C       7.39      -2.10      14.68
C       6.48      -3.01      15.26
C       6.78      -3.53      16.53
C       7.93      -3.18      17.22
C       5.30      -3.38      14.58
C       4.27      -3.69      14.00
C       3.09      -4.06      13.32
C       2.85      -3.64      12.01
C       1.69      -3.99      11.32
C       0.71      -4.81      11.96
C       0.95      -5.25      13.30
C       2.12      -4.87      13.95
C      -9.57       4.75      18.68
C      12.09       2.46      14.49
C      -9.36      13.09      13.98
C      11.87      10.93      10.02
C      17.60       6.79       2.47
C      -0.93       6.80       2.48
C      17.64      -1.72       6.86
C      -0.97      -1.49       7.27
C       0.12      15.17       2.26
C       1.44      10.19       2.68
C       8.03      17.67       7.05
C       9.57      12.69       7.06
C       9.47      -0.76      14.62
C       8.16      -3.80      18.58
C       1.58      -3.45       9.91
C       0.01      -6.11      14.11
O     -10.61      16.53       9.53
O      10.93      14.67       8.19
O      17.79      -4.58      10.99
O     -10.72      14.41      11.97
O      10.35      16.85       8.02
O      13.23      13.33       9.99
O      -4.40      -5.26      12.51
O      -1.33      -6.03      11.82
O      -8.19      16.16       7.45
O      -0.77      -4.67      10.10
O      14.01      14.50       7.19
O      19.21      -3.21       8.56
O      -2.55      -3.73       7.60
O      13.13      -0.93      19.06
O     -10.05       2.15      18.50
O      14.22      -1.50      16.09
O      -0.45      11.25       0.97
O      12.57       1.21      16.77
O      -1.55      12.99       1.93
O      -8.41      -2.77      17.61
O      -2.41       8.77       1.52
O      18.01      11.56       2.34
O      19.08       8.67       1.34
O      -4.62      13.54       2.09
O      11.14      -1.66      16.62
O      10.05      -1.79      18.60
