178

Zn      -5.48      -3.17      10.92
Zn      19.65      -3.16      10.91
Zn      -7.09      -4.09      13.53
Zn       7.09      18.60      10.92
Zn      19.65      11.35       0.66
Zn       7.08       4.09      21.18
Zn      22.86      11.35       0.66
Zn      21.26      14.12       0.66
H      16.80      17.33       4.52
H      14.65      13.60       4.52
H      13.69      19.12       7.06
H      11.54      15.40       7.06
H      11.54       1.52      16.87
H      13.69       0.28      20.38
H      14.65      -0.28      14.33
H      16.80      -1.52      17.84
H       2.63       1.51      16.87
H       0.48       0.27      20.39
H      -0.48      -0.28      14.33
H      -2.63      -1.53      17.85
H      25.71      17.33       4.51
H      27.87      13.60       4.51
H      28.82      19.13       7.06
H      30.98      15.40       7.06
H      23.42       5.89       4.51
H      19.11       5.88       4.52
H      23.42       2.29       7.06
H      19.11       2.30       7.05
H       7.09       9.23      16.87
H       7.09      11.72      20.39
H       7.09      12.83      14.33
H       7.09      15.31      17.84
C      21.26      -1.13       9.48
C      18.69      -2.61      13.66
C      -4.52      -2.61      13.66
C       7.09      17.50      13.66
C       9.65      18.97       9.48
C      32.87      18.98       9.48
C       4.52       2.61      21.05
C       9.65       2.61      21.05
C      21.26       9.31       2.09
C      23.82      13.75       2.09
C      18.70      13.75       2.09
C       7.08       7.05      21.05
C      17.63      14.36       2.96
C      17.69      15.72       3.40
C      16.71      16.29       4.21
C      15.60      15.54       4.62
C      15.50      14.20       4.21
C      16.49      13.63       3.40
C      14.60      16.11       5.43
C      13.74      16.61       6.14
C      12.74      17.19       6.95
C      12.84      18.53       7.37
C      11.86      19.09       8.17
C      10.71      18.36       8.61
C      10.65      17.00       8.17
C      11.63      16.43       7.37
C      10.71       1.99      20.18
C      10.65       2.03      18.76
C      11.63       1.46      17.95
C      12.74       0.82      18.52
C      12.84       0.77      19.92
C      11.85       1.34      20.72
C      13.74       0.25      17.71
C      14.60      -0.25      17.00
C      15.60      -0.83      16.19
C      15.50      -0.77      14.79
C      16.49      -1.34      13.99
C      17.63      -2.00      14.53
C      17.69      -2.03      15.95
C      16.71      -1.47      16.76
C       3.46       1.99      20.18
C       3.52       2.03      18.76
C       2.54       1.46      17.95
C       1.43       0.82      18.53
C       1.33       0.76      19.93
C       2.32       1.33      20.73
C       0.43       0.24      17.71
C      -0.43      -0.26      17.01
C      -1.43      -0.83      16.19
C      -1.33      -0.77      14.79
C      -2.32      -1.34      13.99
C      -3.46      -2.00      14.53
C      -3.52      -2.04      15.96
C      -2.54      -1.47      16.76
C      24.89      14.37       2.96
C      24.82      15.72       3.40
C      25.81      16.29       4.20
C      26.91      15.54       4.62
C      27.01      14.20       4.20
C      26.03      13.63       3.40
C      27.91      16.11       5.43
C      28.78      16.61       6.14
C      29.77      17.19       6.95
C      29.68      18.53       7.37
C      30.66      19.09       8.17
C      31.80      18.36       8.61
C      31.87      17.01       8.17
C      30.88      16.43       7.37
C      21.26       8.08       2.96
C      22.47       7.46       3.40
C      22.47       6.33       4.20
C      21.26       5.74       4.62
C      20.05       6.32       4.21
C      20.06       7.46       3.40
C      21.26       4.59       5.43
C      21.26       3.59       6.14
C      21.26       2.44       6.95
C      22.47       1.86       7.37
C      22.47       0.72       8.17
C      21.26       0.10       8.61
C      20.06       0.72       8.17
C      20.05       1.86       7.36
C       7.09       8.28      20.18
C       7.09       8.21      18.76
C       7.09       9.34      17.95
C       7.09      10.62      18.52
C       7.09      10.73      19.92
C       7.09       9.60      20.72
C       7.09      11.77      17.71
C       7.09      12.77      17.00
C       7.09      13.92      16.19
C       7.09      13.81      14.79
C       7.09      14.95      13.99
C       7.09      16.27      14.53
C       7.09      16.34      15.96
C       7.09      15.21      16.76
Br      19.09      16.95       2.99
Br      16.12      11.81       2.98
Br      12.23      20.92       8.59
Br       9.26      15.77       8.59
Br       9.25       2.84      17.73
Br      12.23       1.12      22.58
Br      16.11      -1.12      12.13
Br      19.09      -2.84      16.98
Br       4.92       2.83      17.73
Br       1.94       1.12      22.59
Br      -1.94      -1.13      12.13
Br      -4.92      -2.84      16.98
Br      23.43      16.96       2.98
Br      26.40      11.81       2.98
Br      30.29      20.92       8.59
Br      33.26      15.77       8.59
Br      24.23       8.05       2.98
Br      18.29       8.05       2.99
Br      24.23       0.13       8.59
Br      18.29       0.13       8.58
Br       7.09       6.59      17.73
Br       7.09      10.03      22.58
Br       7.09      14.52      12.13
Br       7.09      17.95      16.98
O      21.26      -4.09      11.57
O      22.39      -1.61       9.82
O      18.54      -2.52      12.40
O      -5.50      -3.18      14.25
O      20.13      -1.61       9.82
O      -4.37      -2.53      12.40
O      19.67      -3.18      14.24
O       7.09      18.63      14.25
O       8.67      18.24       9.82
O       7.09      17.32      12.40
O       9.80      20.19       9.82
O      32.72      20.19       9.81
O      33.85      18.24       9.82
O      21.26      12.27       0.00
O       4.37       2.52      22.31
O       8.67       3.17      20.47
O      22.39       9.79       1.76
O       5.50       3.17      20.47
O      20.13       9.79       1.75
O       9.80       2.52      22.31
O      23.97      12.53       1.76
O      19.67      14.49       1.76
O      22.84      14.49       1.76
O      18.55      12.53       1.76
O       7.08       5.92      20.47
O       7.08       7.22      22.31
