98

Zn       6.58       7.52       8.42
Zn       3.75       7.46       8.37
H       2.92       8.74      12.04
H       8.11       9.15       0.34
H       6.41       8.09      15.48
H       3.75       8.23       1.34
H       7.67       9.68       2.42
H       2.44       9.38      14.39
H       7.53       0.90       7.86
H       3.18      14.11       7.28
H       7.33       3.39       7.87
H       3.32      11.62       7.39
H       3.38       0.62       8.97
H       7.24       8.96       4.76
H       6.79      14.37       9.62
H      -2.27       7.06      12.21
H      -2.10       8.33      10.97
H       0.01       7.59      13.08
H       0.23       8.81      11.82
H      -1.68      10.16      12.76
H      -0.44       9.89      14.00
H      -1.94       8.94      14.01
H      11.74      11.60       9.26
H      10.12      10.90       9.52
H       1.67       6.69      10.36
H      11.07      12.05       6.84
H       9.40      11.62       7.26
H       9.41      13.43       9.06
H       9.71      14.11       7.45
H      11.06      13.88       8.58
H       8.69       9.59       8.23
H       1.60       8.16       6.48
H       8.68       5.50       8.80
H      -0.91       8.30       6.49
H      11.20       5.40       8.86
H       2.01       8.77      16.47
C       5.25       4.91       8.37
C       6.11      12.39       9.15
C       4.25       1.21       8.69
C       6.04      13.78       9.09
C       5.47       0.58       8.40
C       4.99      14.42       8.42
C      -0.33       7.06       9.61
C      10.70       8.74       8.37
C       1.06       7.03       9.52
C       9.30       8.70       8.35
C       1.01       7.87       7.35
C       5.19      10.10       8.48
C       9.30       6.39       8.68
C      -0.37       7.93       7.37
C      10.68       6.35       8.70
C       5.06       7.68      10.97
C       5.15       7.80       5.83
C      -1.08       7.52       8.50
C      11.41       7.53       8.52
C       4.91       8.07      12.41
C       5.27       8.22       4.39
C       3.67       8.61      12.81
C       6.59       1.38       8.11
C       6.48       8.82       3.99
C       3.41       8.96      14.12
C       6.72       9.21       2.68
C       4.38       8.74      15.12
C       5.75       8.97       1.69
C       5.64       8.26      14.73
C       4.52       8.42       2.08
C       5.91       7.93      13.40
C       4.28       8.06       3.41
C       4.11       8.86      16.55
C       4.00      13.63       7.81
C       6.00       9.14       0.26
C      -1.54       7.61      11.60
C      -0.52       8.33      12.47
C      -1.18       9.39      13.36
C      10.89      11.12       8.76
C      10.34      12.03       7.67
C      10.12      13.44       8.22
C       6.47       2.76       8.11
C       4.08      12.24       7.86
C       5.26       3.41       8.40
C       5.14      11.60       8.51
C       4.15       2.61       8.70
N       1.71       7.42       8.41
N       8.63       7.54       8.49
Cl       2.75       7.31       3.75
Cl       7.47       7.28      13.05
Cl       2.61       3.27       9.17
Cl       7.36      11.67      10.11
O       6.35       5.49       8.64
O      11.44       9.87       8.26
O       4.10       9.50       8.73
O       4.16       5.49       8.06
O       6.30       9.56       8.16
O       6.19       7.86      10.42
O       4.02       7.93       6.39
O       4.01       7.23      10.41
O       6.22       7.39       6.38
O      -0.93       6.60      10.75
