360

Gd       1.50       4.40      18.36
Gd       0.91      -2.07      10.13
Gd       7.32      10.33       0.38
Gd       7.91      16.80       8.61
H       0.84       7.57      15.35
H       1.56       1.60       7.76
H       7.98       7.17       3.38
H       7.26      13.14      10.98
H       4.46       9.43      16.71
H      10.77       0.72       5.64
H       4.35       5.31       2.03
H      -1.95      14.01      13.10
H       1.63      13.09      10.49
H       0.77       7.62       3.55
H       7.19       1.64       8.25
H       8.04       7.11      15.19
H       0.64      15.05      14.22
H       1.75       4.47       0.76
H       8.17      -0.31       4.52
H       7.06      10.27      17.97
H       2.51      10.12       2.63
H      -0.11      14.57       8.28
H       6.31       4.61      16.11
H       8.92       0.17      10.46
H       4.91      13.69       3.10
H      10.32      14.95       4.71
H       3.91       1.05      15.64
H      -1.50      -0.22      14.03
H       0.26       7.79      17.82
H       2.14      -0.75       6.96
H       8.55       6.94       0.91
H       6.68      15.48      11.77
H      -1.03       9.46      17.41
H       3.44       0.05       5.44
H       9.85       5.28       1.33
H       5.38      14.68      13.29
H      -2.49       9.66      18.43
H       4.89      -0.90       5.01
H      11.30       5.08       0.31
H       3.92      15.63      13.73
H      -2.60       8.86      16.83
H       5.01       0.47       6.16
H      11.42       5.87       1.91
H       3.81      14.26      12.58
H      11.32      12.26       0.69
H       3.90      16.96       6.66
H      -2.51       2.48      18.05
H       4.91      -2.23      12.07
H      -0.46      10.82       0.93
H       2.86      16.38       8.01
H       9.28       3.92      17.80
H       5.96      -1.64      10.73
H       9.42       6.45      18.17
H       5.81      -1.40       8.19
H      -0.61       8.29       0.57
H       3.01      16.13      10.55
H       0.12       2.48      15.65
H       2.29       0.11      12.63
H       8.70      12.25       3.09
H       6.53      14.62       6.10
H      -0.31       1.97      13.58
H       2.71       2.00      13.62
H       9.12      12.77       5.15
H       6.11      12.74       5.12
H       0.02       3.26      12.40
H       2.38       3.45      12.64
H       8.80      11.47       6.34
H       6.43      11.28       6.10
H      -1.66       2.89      12.87
H       4.06       2.91      12.89
H      10.48      11.84       5.87
H       4.75      11.82       5.85
H      -0.18       5.72      13.29
H       2.58       3.17      10.05
H       8.99       9.02       5.45
H       6.24      11.56       8.69
H      -0.85       5.88      14.94
H       3.25       1.61       9.50
H       9.67       8.85       3.80
H       5.56      13.13       9.24
H      -1.90       5.35      13.60
H       4.30       2.78      10.33
H      10.72       9.39       5.14
H       4.51      11.95       8.40
H       6.87      13.94       0.54
H       8.35      17.49       5.06
H       1.95       0.80      18.19
H       0.46      -2.75      13.67
H       4.60      13.63       0.36
H      -2.21      17.59       5.41
H       4.21       1.10      18.37
H      11.03      -2.86      13.33
H       2.23      14.44       0.49
H       0.17      17.67       4.59
H       6.59       0.29      18.25
H       8.65      -2.93      14.15
H       1.77      16.84       0.85
H       0.62      17.88       2.17
H       7.04      -2.10      17.88
H       8.20      -3.14      16.56
H       3.65      18.43       1.25
H      -1.26      17.87       0.53
H       5.17      -3.70      17.49
H      10.07      -3.13      18.21
H       6.01      17.61       1.22
H       9.21      17.70       1.34
H       2.81      -2.87      17.52
H      -0.40      -2.97      17.39
C       2.95       7.18      17.03
C      -0.55      -0.12       7.74
C       5.86       7.56       1.71
C       9.36      14.86      10.99
C       2.70       8.34      16.10
C      -0.31       1.06       6.83
C       6.11       6.39       2.64
C       9.12      13.68      11.90
C       1.54       8.40      15.33
C       0.85       1.82       6.96
C       7.27       6.34       3.41
C       7.96      12.92      11.77
C       1.26       9.52      14.55
C       1.13       2.84       6.06
C       7.55       5.22       4.18
C       7.68      11.90      12.68
C       2.15      10.62      14.46
C       0.25       3.19       5.01
C       6.67       4.12       4.28
C       8.57      11.55      13.72
C       3.29      10.52      15.27
C      -0.90       2.38       4.91
C       5.52       4.21       3.47
C       9.71      12.36      13.82
C       3.57       9.43      16.08
C      11.65       1.33       5.79
C       5.24       5.31       2.66
C      -2.84      13.40      12.95
C       1.83      11.85      13.68
C       0.57       4.23       3.99
C       6.98       2.88       5.06
C       8.25      10.50      14.74
C       1.98      11.97      12.28
C       0.41       5.62       4.21
C       6.83       2.77       6.45
C       8.40       9.12      14.52
C       1.55      13.08      11.58
C       0.85       6.57       3.30
C       7.27       1.66       7.16
C       7.96       8.17      15.44
C       1.01      14.17      12.26
C       1.39       6.16       2.07
C       7.81       0.56       6.48
C       7.43       8.57      16.66
C       0.99      14.17      13.65
C       1.41       4.81       1.75
C       7.83       0.56       5.08
C       7.41       9.93      16.99
C       1.37      13.01      14.33
C       1.03       3.88       2.71
C       7.45       1.72       4.41
C       7.78      10.86      16.02
C       0.43      15.31      11.48
C       1.97       7.19       1.15
C       8.39      -0.58       7.25
C       6.85       7.55      17.59
C       4.96      11.24       1.96
C      -2.56      15.48       7.36
C       3.86       3.50      16.78
C      11.37      -0.75      11.38
C       3.85      11.83       2.78
C      -1.45      14.83       6.58
C       4.96       2.90      15.96
C      10.27      -0.09      12.15
C       2.66      11.13       3.01
C      -0.26      14.44       7.21
C       6.15       3.60      15.72
C       9.08       0.30      11.53
C       1.66      11.74       3.77
C       0.73      13.84       6.44
C       7.15       3.00      14.97
C       8.08       0.90      12.30
C       1.75      13.06       4.25
C       0.65      13.68       5.05
C       7.07       1.68      14.48
C       8.17       1.06      13.69
C       2.94      13.73       3.96
C      -0.55      14.13       4.46
C       5.87       1.01      14.78
C       9.36       0.61      14.27
C       4.00      13.12       3.28
C      -1.60      14.65       5.21
C       4.82       1.61      15.46
C      10.41       0.08      13.53
C      -0.50       7.16      18.31
C       2.90      -1.37       7.46
C       9.31       7.57       0.43
C       5.91      16.10      11.28
C      -1.98       8.99      17.72
C       4.38      -0.36       5.82
C      10.79       5.74       1.02
C       4.44      15.10      12.92
C      -0.84      11.54       0.20
C       3.23      17.26       7.48
C       9.65       3.20      18.54
C       5.58      -2.53      11.26
C      -0.12       3.56      15.54
C       2.52       0.47      11.62
C       8.94      11.18       3.20
C       6.29      14.26       7.12
C      -0.63       2.96      13.23
C       3.03       2.57      12.74
C       9.44      11.78       5.50
C       5.79      12.17       5.99
C      -0.89       5.30      14.02
C       3.29       2.36      10.28
C       9.71       9.44       4.72
C       5.52      12.37       8.45
C       6.81      15.04       0.70
C       8.42      17.60       3.96
C       2.01      -0.31      18.04
C       0.40      -2.87      14.78
C       5.44      15.58       0.77
C       9.79      17.66       3.42
C       3.38      -0.84      17.96
C      -0.97      -2.92      15.32
C       4.37      14.68       0.57
C      -1.98      17.64       4.34
C       4.44       0.06      18.17
C      10.79      -2.91      14.40
C       3.06      15.13       0.62
C      -0.66      17.70       3.89
C       5.76      -0.40      18.12
C       9.48      -2.96      14.85
C       2.80      16.48       0.85
C      -0.41      17.79       2.52
C       6.01      -1.75      17.88
C       9.23      -3.06      16.22
C       3.86      17.38       1.06
C      -1.47      17.80       1.60
C       4.96      -2.65      17.68
C      10.28      -3.07      17.14
C       5.17      16.93       1.03
C      10.05      17.73       2.04
C       3.64      -2.20      17.71
C      -1.23      -2.99      16.70
N      -0.04       9.52      13.87
N       2.44       3.50       6.21
N       8.86       5.21       4.87
N       6.38      11.23      12.53
N       4.22      11.66      15.38
N      11.01       2.54       3.78
N       4.60       3.07       3.36
N      -2.19      12.19      14.95
N       2.57      10.86      11.50
N      -0.17       6.11       5.48
N       6.25       3.88       7.23
N       8.98       8.62      13.26
N       1.27      13.03      15.80
N       1.13       2.45       2.35
N       7.55       1.70       2.94
N       7.68      12.28      16.39
N       0.47      10.92       4.08
N       1.92      13.35       7.16
N       8.34       3.81      14.66
N       6.89       1.38      11.58
N       3.14      15.13       4.37
N      -0.74      14.06       3.01
N       5.67      -0.39      14.37
N       9.56       0.68      15.73
N      -1.71       7.71      18.35
N       4.12      -1.28       6.92
N      10.53       7.03       0.39
N       4.70      16.01      11.81
N      -0.54       3.92      14.32
N       2.94       1.74      11.55
N       9.36      10.82       4.42
N       5.87      12.99       7.18
O       2.09       6.24      16.99
O       0.31      -0.30       8.66
O       6.72       8.49       1.75
O       8.50      15.04      10.08
O       3.96       7.26      17.79
O      11.28      -0.84       7.48
O       4.86       7.47       0.95
O      -2.46      15.58      11.25
O       0.14      15.11      10.26
O       2.26       8.33       1.64
O       8.68      -0.37       8.48
O       6.56       6.40      17.10
O       2.21      -2.86      12.06
O       0.20       2.34      18.67
O       6.61      17.59       6.68
O       8.62      12.40       0.07
O      -0.81       8.58      14.10
O       3.21       3.06       7.07
O       9.63       6.15       4.64
O       5.60      11.68      11.66
O      -0.31      10.48      13.12
O       2.71       4.45       5.46
O       9.13       4.26       5.62
O       6.11      10.28      13.28
O       4.84      11.78      16.44
O      10.39       1.53       3.42
O       3.98       2.96       2.29
O      -1.57      13.20      15.32
O       4.31      12.44      14.42
O      10.91       3.66       3.25
O       4.50       2.30       4.32
O      -2.10      11.08      15.48
O       2.87       9.82      12.11
O      -0.47       5.28       6.34
O       5.94       4.92       6.63
O       9.29       9.46      12.39
O       2.73      11.03      10.29
O      -0.32       7.34       5.60
O       6.09       3.70       8.45
O       9.14       7.40      13.14
O       0.96      11.98      16.37
O       1.44       1.65       3.24
O       7.85       2.76       2.36
O       7.38      13.09      15.50
O       1.50      14.11      16.36
O       0.91       2.16       1.17
O       7.32       0.63       2.38
O       7.90      12.57      17.57
O       4.66      10.32       1.13
O      -2.27      16.07       8.45
O       4.15       4.42      17.61
O      11.08      -1.34      10.29
O       6.14      11.68       2.10
O       9.09      15.45       6.90
O       2.68       3.06      16.64
O      -0.28      -0.71      11.84
O      -0.11      11.14       5.15
O       2.51      12.36       6.69
O       8.93       3.59      13.58
O       6.31       2.38      12.04
O       0.13      10.07       3.25
O       2.27      13.95       8.18
O       8.69       4.66      15.49
O       6.55       0.78      10.55
O       2.13      15.82       4.54
O       0.27      14.05       2.29
O       6.69      -1.09      14.19
O       8.55       0.69      16.45
O       4.30      15.52       4.51
O      10.92      14.01       2.59
O       4.51      -0.79      14.23
O      -2.11       0.72      16.15
O       1.79      10.58       0.04
O       0.61      17.19       8.45
O       7.02       4.15      18.70
O       8.21      -2.45      10.29
O      -0.00       4.35      16.50
O       2.41      -0.27      10.61
O       8.82      10.38       2.24
O       6.41      15.01       8.12
O       7.83      15.71       0.77
O       7.39      17.70       3.29
O       0.98      -0.98      17.97
O       1.43      -2.97      15.45
