148

Zn       6.81       5.63      14.10
Zn       6.50       8.50      14.37
Zn       6.77       8.51       1.17
Zn       6.46       5.63       0.91
H       8.25       0.80      12.66
H       5.07      13.34      15.79
H       7.94      10.50      13.02
H       8.19      12.95      12.80
H       5.42       3.63      15.49
H       5.18       1.19      15.71
H       6.70       8.74       5.39
H       6.54       4.47       5.13
H       6.71       5.38       9.88
H       6.57       9.66      10.14
H       6.73       4.83      21.14
H       6.76       9.29      22.70
H       6.66       5.24      25.51
H       6.64       4.98      23.07
H       6.64       8.88      18.33
H       6.65       9.13      20.77
H      11.02       5.37      14.30
H      10.73       9.64      14.26
H       2.29       8.75      14.32
H       2.58       4.48      14.17
H       8.24      13.33       2.61
H       5.09       0.80      28.06
H       7.91       3.63       2.23
H       8.14       1.18       2.45
H       5.50      10.50      28.35
H       5.27      12.95      28.13
H      10.98       8.78       0.98
H      10.70       4.50       1.04
H       2.26       5.40       0.98
H       2.54       9.67       1.14
C       6.68       6.76      16.82
C       4.07       6.76      14.21
C       6.63       7.39      11.65
C       9.24       7.37      14.25
C       6.73       7.35      27.02
C       4.03       7.39       1.08
C       6.60       6.74       3.63
C       9.21       6.77       1.03
C       7.65       2.76      13.26
C       7.59       1.36      13.32
C       5.68      11.38      15.20
C       5.74      12.77      15.15
C       7.33      11.18      13.61
C       7.46      12.56      13.50
C       6.02       2.95      14.88
C       5.90       1.58      15.00
C       6.70       0.74      14.20
C       6.64      13.40      14.28
C       6.68       7.78       5.90
C       6.60       5.36       5.74
C       6.66       5.27       7.11
C       6.70       6.42       7.96
C       6.68       6.34       9.37
C       6.62       8.76       9.53
C       6.68       8.85       8.16
C       6.71       7.71       7.31
C       6.62       6.63       5.13
C       6.64       7.49      10.15
C       6.68       6.75      18.33
C       6.72       7.37      25.52
C       6.70       5.62      19.16
C       6.71       5.74      20.55
C       6.74       8.50      24.68
C       6.74       8.37      23.29
C       6.68       6.12      24.87
C       6.67       5.98      23.50
C       6.66       8.00      18.97
C       6.67       8.13      20.35
C       6.69       7.00      21.18
C       6.70       7.12      22.66
C      11.52       6.33      14.30
C      11.35       8.75      14.28
C      12.72       8.85      14.32
C       0.38       7.71      14.33
C       1.79       7.79      14.30
C       1.96       5.37      14.22
C       0.59       5.27      14.28
C      12.93       6.41      14.32
C      10.74       7.48      14.27
C       2.57       6.64      14.24
C       7.63      11.37       2.01
C       7.58      12.77       1.95
C       5.62       2.76       0.07
C       5.67       1.37       0.12
C       7.29       2.95       1.65
C       7.41       1.58       1.76
C       6.00      11.19       0.39
C       5.89      12.56       0.27
C       6.69      13.39       1.07
C       6.58       0.74       0.98
C      11.48       7.81       0.99
C      11.32       5.40       1.02
C      12.69       5.30       0.98
C       0.34       6.44       0.97
C       1.76       6.37       1.00
C       1.92       8.78       1.08
C       0.55       8.88       1.02
C      12.90       7.74       0.97
C      10.71       6.67       1.01
C       2.53       7.51       1.06
Br       8.85       3.56      12.06
Br       4.45      10.58      16.39
Br       6.72       3.81      18.53
Br       6.79      10.30      25.31
Br       8.82      10.57       3.22
Br       4.49       3.56      27.46
N       6.88       3.55      14.02
N       6.45      10.59      14.45
N       6.85      10.59       1.25
N       6.41       3.55       0.81
N       6.71      10.23       7.61
N       6.70       3.90       7.66
N      13.25       3.89      14.31
N      13.26      10.22      14.36
N      13.21      10.26       1.00
N       0.03       3.93       0.96
O       6.74       5.67      16.18
O       6.62       7.92      16.30
O       4.54       7.94      14.22
O       4.73       5.67      14.18
O       6.59       8.48      12.29
O       6.67       6.21      12.14
O       8.76       6.20      14.19
O       8.59       8.46      14.28
O       6.76       8.45      27.66
O       6.70       6.19      27.55
O       4.51       6.22       1.04
O       4.69       8.48       1.13
O       6.54       5.64       2.98
O       6.66       7.91       3.14
O       8.73       7.95       1.05
O       8.56       5.68       1.02
O       7.42      10.44       6.61
O       6.06      11.09       8.22
O       7.40       3.68       8.66
O       6.04       3.03       7.06
O      12.24       3.68      15.00
O       0.66       3.03      13.66
O       1.07      10.44      15.06
O      12.65      11.09      13.71
O      12.20      10.48       0.31
O       0.62      11.12       1.64
O       1.04       3.70       0.27
O      12.62       3.07       1.61
