98

Al       0.02       6.97      12.08
Al       3.77      20.92       4.03
H       0.64      18.45       7.29
H       0.77      16.26       8.52
H       2.96      13.36      11.01
H       0.75      11.70       7.67
H       0.64      24.98       4.53
H       0.77      27.14       5.81
H       2.96      30.74       7.08
H       0.75      28.68      10.18
H       0.64      19.32       0.26
H       0.77      33.30      21.90
H       2.96      32.59      18.15
H       0.75      36.32      18.38
H       3.21      17.75       3.64
H       3.02      13.64       5.72
H       3.36      10.16      12.43
H       0.62       8.54       9.22
H       3.21      22.17       6.97
H       3.02      26.03       9.48
H       3.36       5.69       9.14
H       0.62      31.61      12.15
H       3.21      22.84       1.47
H       3.02      37.03      21.02
H       3.36      32.96      14.66
H       0.62       8.66      14.86
C       1.99      34.79      14.17
C       1.99       8.82      11.10
C       1.99      33.09      10.96
C       1.78      19.06       4.95
C       1.78      22.65       5.17
C       1.78      21.04       1.95
C       1.85      17.77       5.64
C       1.19      17.60       6.88
C       1.25      16.41       7.56
C       1.92      15.32       6.96
C       2.53      15.44       5.69
C       2.55      16.70       5.05
C       2.50      12.51      10.52
C       1.87      12.65       9.27
C       1.27      11.57       8.61
C       1.26      10.32       9.23
C       1.96      10.12      10.47
C       2.61      11.24      11.08
C       1.85      23.89       5.94
C       1.19      25.05       5.47
C       1.25      26.23       6.17
C       1.92      26.26       7.41
C       2.53      25.10       7.94
C       2.55      23.91       7.17
C       2.50      30.75       8.06
C       1.87      29.60       8.57
C       1.27      29.57       9.83
C       1.26      30.73      10.60
C       1.96      31.90      10.16
C       2.61      31.87       8.88
C       1.85      21.09       0.49
C       1.19      34.05      23.88
C       1.25      34.06      22.51
C       1.92      35.13      21.86
C       2.53      36.16      22.60
C       2.55      36.09      24.02
C       2.50      33.45      17.65
C       1.87      34.45      18.39
C       1.27      35.57      17.79
C       1.26      35.65      16.40
C       1.96      34.68      15.61
C       2.61      33.59      16.27
N       2.03      14.04       7.50
N       1.84      13.95       8.75
N       2.03      27.37       8.25
N       1.84      28.49       7.70
N       2.03      35.29      20.48
N       1.84      34.25      19.78
O       2.93      33.97      10.75
O       2.93      34.16      13.51
O       2.93       8.56      11.97
O       1.09      33.27      11.89
O       1.09       7.93      10.80
O       1.09      35.49      13.55
O       2.69      21.69       2.63
O       2.69      19.33       4.06
O       2.69      21.74       5.39
O       0.84      20.39       2.51
O       0.84      22.49       4.32
O       0.84      19.87       5.24
O       3.23      16.78       3.89
O       3.17      14.40       5.12
O       3.30      11.13      12.23
O       0.61       9.31       8.61
O       3.23      22.86       7.68
O       3.17      25.12       9.13
O       3.30       5.03       8.40
O       0.61      30.69      11.78
O       3.23      23.11       0.52
O       3.17      37.18      21.99
O       3.30      32.65      15.60
O       0.61      36.70      15.84
