116

Zn       7.04      12.57       8.82
Zn      -2.25      -2.07       8.73
Zn      -2.53      -4.71      10.69
Zn       7.39      15.05       6.82
H       5.64      11.06      11.37
H      -6.74       5.71      11.78
H       8.61       4.94       8.96
H      -3.99      -0.50      10.89
H       4.17       8.68       2.20
H       5.12       8.33      15.31
H       2.19      -0.31       2.31
H       3.08       0.57       0.17
H      -2.66      -3.04      13.50
H       4.01      15.02       5.55
H      -1.32       0.23      11.01
H       0.21      -3.04       6.75
H       3.80      12.71       9.21
H      11.34      -1.91       8.32
H      -3.75      -4.88      13.48
H       5.92      10.49       6.38
H       8.04       2.89       8.26
H       3.51       6.79       1.14
H      -2.35       2.47      14.29
H      -1.95       4.62      16.49
H       3.76       6.84      16.29
H      -7.85      10.43      11.75
H       9.00      15.36       4.06
H      -0.68      -0.45       6.37
H       8.31       9.79       8.16
H       7.72      13.67       4.06
H      -6.37      12.04       9.46
H      -6.24       3.28      11.87
C       6.37      11.80      11.67
C       8.83      10.18       9.03
C       7.39      12.98       4.84
C      -4.61      -1.01      10.16
C      -6.51      12.96       8.90
C       6.53      11.88       4.71
C      -5.69      13.53       7.90
C      -8.93       9.49      10.00
C      -1.55      -1.74       4.73
C       1.91      13.58       7.12
C       0.70      13.37       7.04
C      12.55      -0.78       9.85
C      -0.63      13.20       7.02
C      -1.86      13.09       7.08
C      -3.19      13.09       7.25
C      -2.30      -2.42      12.70
C      -4.39      13.18       7.51
C      -7.32       5.01      11.18
C      10.17       5.51      10.34
C       9.41       4.58       9.61
C       9.68       3.21       9.65
C      10.75       2.72      10.45
C      -2.08      -1.02      12.73
C      -7.05       3.65      11.24
C       9.95       6.90      10.22
C      11.20       1.38      10.40
C      11.78       0.32      10.25
C       4.20      14.47       6.47
C      -8.72       8.11      10.11
C       4.20       8.53       0.05
C      -2.86       0.97      16.13
C      -2.56       2.34      16.18
C       4.98      11.24       0.10
C       3.29      13.77       7.29
C       4.84      10.53       1.32
C       4.36       9.21       1.26
C      -2.71       0.31      14.89
C       5.30      11.09       2.54
C       5.87      11.44       3.56
C      -1.61      -0.73      11.44
C      -2.37      -0.20      13.83
C      12.41      16.40       0.15
C      -5.65      16.93       1.40
C      -4.54      17.81       1.37
C       6.47      11.35       6.02
C      -4.05      18.30       0.17
C     -12.02       9.72      16.24
C       5.52       8.69      16.26
C      -6.33      16.72       2.61
C     -11.75      10.43      15.05
C     -11.66      11.16      14.08
C       4.09      13.29       8.35
C      -0.68      -1.69       3.63
C      12.27      -1.73       8.84
C      -4.39      -5.36      12.75
C      -6.38      14.69       7.51
C     -11.53      11.97      12.94
C       8.84       2.34       8.82
C       3.76       7.13       0.10
C      11.36      15.37       0.05
C      -8.48      10.51      10.86
C       9.45      15.98       4.83
C      -1.46      -1.11       6.00
N       6.82      12.73      10.82
N      -2.01      -2.90      11.48
N       5.43      14.40       7.00
N      -1.58      -1.85      10.69
N       5.37      13.67       8.16
N      13.39      -2.43       8.56
N      -4.47      -4.92      11.47
N       7.22      12.10       6.84
N      -1.18      -3.65       8.24
N      -8.95      11.70      10.44
N      15.21      -2.32       6.04
N      -2.50      -1.47       6.78
N       8.83      11.50       9.31
N       7.80      13.12       6.13
N      -7.58      13.75       9.09
N      -4.13      -1.99       9.37
O       8.95       1.12       8.69
O      -3.75      -1.84      16.45
O      -2.31       3.08      15.06
O       5.35      12.54       0.12
O      10.75      14.85       0.98
