70

Al       4.10       6.88       8.35
Al       0.78       6.82       8.37
H      -0.91       5.28       7.62
H       2.41       8.45       9.01
H       1.11       5.98      12.26
H       1.28       5.77      14.76
H      -2.80       7.07      15.10
H       4.24       7.93       1.68
H       0.16       6.59       1.89
H       0.40       6.36       4.39
H       1.14      13.42       7.30
H       0.87       0.21       9.83
H       4.15       2.90       7.31
H       4.16       0.45       7.05
H      -2.75      10.89       8.96
H      -2.78      13.34       9.11
H       3.29       7.32      11.51
H       2.61       7.53      13.11
H      -1.78       7.59       5.25
H      -1.12       8.03       3.69
H       2.04      11.62       6.30
H       1.12      10.10       6.10
H       2.13      10.33       7.51
H      -0.34       3.26       9.69
H       0.89       3.58      10.90
H       0.04       2.02      10.91
C       2.44       4.43       8.59
C       2.44       6.91       5.92
C      -0.85       9.28       8.12
C      -0.90       6.79      10.80
C      -0.91       6.67      12.27
C       0.27       6.24      12.90
C       0.38       6.13      14.28
C      -0.75       6.46      15.06
C      -1.95       6.85      14.46
C      -2.06       6.98      13.05
C       3.40       7.61       2.30
C       2.19       7.32       1.67
C       1.08       6.86       2.41
C       1.22       6.73       3.78
C       2.42       7.06       4.45
C       3.55       7.50       3.70
C      -0.81      10.76       8.06
C       2.46       2.95       8.63
C       0.29      11.49       7.55
C       0.27      12.88       7.68
C       1.51       2.19       9.35
C       1.57       0.79       9.24
C       3.42       2.29       7.85
C       3.43       0.91       7.71
C      -1.90      11.46       8.60
C      -1.90      12.85       8.70
C      -0.79      13.59       8.26
C       2.48       0.13       8.40
C       1.46      10.85       6.83
C       0.48       2.79      10.26
N      -0.78       6.38      16.47
N       2.20       7.47       0.26
N       3.42       7.41      12.51
N      -1.92       7.84       4.27
O       3.56       5.03       8.48
O       1.33       6.75       6.53
O       0.26       8.65       8.13
O      -2.03       6.86      10.19
O      -2.00       8.72       8.19
O       0.23       6.83      10.21
O       1.30       5.01       8.62
O       3.59       6.96       6.51
O      -0.89       6.23       7.80
O       2.44       7.48       8.92
