182

Al       7.86       4.70      13.87
Al       9.51       7.44      13.84
Al      11.06       4.88      13.82
Al      17.30      10.41       0.40
Al      14.10      10.29       0.49
Al      15.58       7.69       0.48
H      11.35       9.53      21.79
H       8.17       3.60      22.00
H       7.59       1.66      20.00
H      15.22      11.13      21.48
H       5.74       5.40      21.75
H       4.39       7.07      19.88
H       8.18       5.95      20.42
H       8.60       8.17      22.16
H       7.26       9.84      20.29
H      17.44       9.29      21.62
H      12.25       9.84       3.83
H      13.32       9.87      19.77
H      11.58      10.84       5.98
H      11.52      10.76       8.43
H      13.70       5.80       3.68
H      13.65       4.37       5.75
H      13.36       4.20       8.20
H      12.66       5.22      10.37
H      11.50       0.91       3.81
H      11.88       2.69      10.36
H      12.88       1.41       5.84
H      10.49       7.15      20.52
H      13.02       1.96       8.24
H       7.22       0.89       4.07
H       6.09       1.40       6.26
H       7.61       2.46      10.66
H       3.81       6.45       4.21
H       5.44       5.78      10.75
H       3.33       5.45       6.45
H       3.86       5.27       8.86
H       6.52       9.76       3.86
H      12.33       5.66      22.10
H       7.75      10.59       5.87
H       8.31      10.38       8.27
H       8.15       9.09      10.41
H      14.29       6.00      20.08
H      15.16       8.38      21.35
H      12.00       2.43      22.03
H      11.42       0.50      20.03
H      10.50       4.35      20.56
H       9.87       9.97      11.56
H       9.96      10.21       9.79
H      10.73      11.41      10.89
H       6.01       3.75       9.33
H       4.51       2.83       9.65
H       4.95       3.27       7.96
H       5.96       3.63      14.71
H       6.91      10.95       0.85
C       7.56       7.07      15.75
C      12.12       7.26      17.02
C      14.12       8.11      21.15
C      13.02       7.92      22.29
C      13.64       6.78      20.47
C      12.62       7.61      19.58
C      12.55       6.59      21.57
C      11.53       7.42      20.72
C      13.28       8.09      23.67
C      12.37       7.43      18.20
C      10.70       1.18      20.48
C      11.63       6.95      15.70
C      11.02       2.26      21.57
C       9.65       1.28      24.94
C       9.92       2.80      17.08
C       9.40       0.77      21.25
C       9.73       1.85      22.38
C       8.57       1.83      20.47
C       9.86       2.25      19.66
C       8.89       2.91      21.55
C      10.19       3.33      20.78
C       9.66       1.58      23.76
C       9.80       3.35      15.76
C       9.92       2.51      18.27
C       5.32       7.31      20.41
C       6.07       6.38      21.41
C       5.86       7.79      24.96
C       7.12       7.41      17.08
C       5.56       8.55      21.33
C       6.30       7.61      22.38
C       6.92       8.85      20.63
C       6.69       7.62      19.66
C       7.67       7.92      21.64
C       7.47       7.02      11.99
C       7.43       6.69      20.71
C       6.08       7.67      23.77
C       6.90       7.55      18.27
C      11.90       8.53       9.97
C      12.02       8.63       8.56
C      12.24       8.80       5.73
C      11.81       9.91       6.51
C      11.75       9.86       7.87
C      12.44       8.90       4.35
C      12.99       7.83       3.62
C      11.64       7.01      12.00
C      12.52       6.17       9.85
C      12.71       6.26       8.47
C      12.41       7.49       7.81
C      13.15       5.14       7.68
C      13.31       5.23       6.33
C      13.04       6.46       5.64
C      12.56       7.58       6.39
C      13.27       6.62       4.26
C      12.08       7.27      10.60
C      10.92       2.47       9.89
C       9.76       3.30      11.96
C      10.87       2.05       8.55
C      10.71       1.39       5.77
C      11.98       1.55       6.43
C      12.05       1.86       7.75
C      10.61       1.05       4.41
C       9.35       0.87       3.82
C       8.50       2.35      10.05
C       8.41       1.97       8.71
C       9.60       1.85       7.93
C       7.15       1.73       8.07
C      13.10       8.94      20.30
C       7.07       1.51       6.72
C       8.24       1.38       5.92
C       9.52       1.54       6.54
C       8.18       1.05       4.56
C       9.74       2.66      10.62
C       5.85       6.59      10.14
C       5.40       6.80       8.83
C       4.77       7.04       6.06
C       4.09       6.09       6.90
C       4.39       5.99       8.23
C      12.00       8.75      21.40
C       4.52       7.12       4.68
C       5.17       8.09       3.91
C       7.39       8.46       9.95
C       7.00       8.68       8.62
C       6.03       7.81       8.04
C       7.59       9.71       7.81
C       7.28       9.82       6.49
C       6.35       8.93       5.86
C       5.71       7.93       6.66
C       6.06       9.00       4.49
C      13.54       8.25      24.85
C       6.86       7.39      10.68
C       9.75       0.69      26.25
C      14.03       8.52      26.18
C       5.42       8.18      26.27
C       9.30       0.36       2.42
C      13.43       8.09       2.23
C       4.84       8.23       2.46
C      10.49      10.35      10.74
C       5.33       2.97       8.95
O       8.64       3.64      15.37
O      10.80       7.82      12.53
O      12.01       5.92      12.55
O      10.91       3.64      12.45
O       9.49       5.68      13.86
O       5.70       9.36      26.64
O      10.90       0.35      26.62
O       8.65       0.52      26.91
O      13.67       9.63      26.72
O      14.82       7.66      26.69
O       4.71       7.33      26.94
O       7.23       5.93      15.30
O       5.30       9.24       1.85
O      10.39       0.19       1.81
O       8.13       0.08       1.93
O      13.11       9.21       1.70
O      14.20       7.23       1.67
O       4.06       7.34       1.95
O      15.64       9.45       0.46
O       8.31       7.94      15.16
O      10.83       7.80      15.17
O      11.98       5.83      15.20
O      10.89       3.55      15.11
O       8.65       3.55      12.51
O       7.22       5.87      12.45
O       8.27       7.88      12.53
O      11.75       9.64      10.74
O       6.01       1.70       8.85
O       6.37       3.78      13.85
O       6.17      11.31       0.34
