92

Al       0.00      35.86      12.42
Al       0.00      21.52       4.14
H       1.99      16.99       8.87
H       1.99      15.02       5.00
H       1.99      13.67      11.57
H       1.99      11.69       7.69
H       1.99      13.67       6.90
H       1.99      15.02       9.66
H       1.99      27.87       5.69
H       1.99      25.50       9.34
H       1.99      31.87       7.23
H       1.99      29.50      10.87
H       1.99      27.83       9.56
H       1.99      29.55       7.00
H       1.99      34.02      22.70
H       1.99      38.37      22.93
H       1.99      33.35      18.47
H       1.99      37.69      18.70
H       1.99      37.39      20.81
H       1.99      34.32      20.60
C       1.99      35.75      14.47
C       1.99       9.00      11.50
C       1.99      34.14      11.30
C       1.99      19.69       5.07
C       1.99      23.23       5.26
C       1.99      21.63       2.10
C       1.99      18.36       5.74
C       1.97      18.22       7.14
C       1.98      17.00       7.78
C       1.99      15.82       7.02
C       2.00      15.91       5.62
C       2.01      17.16       5.01
C       1.99      14.49       7.62
C       1.99      14.20       8.94
C       2.00      12.77      10.94
C       1.99      12.87       9.54
C       1.98      11.69       8.78
C       1.97      10.46       9.43
C       1.99      10.33      10.82
C       2.01      11.53      11.55
C       1.99      24.48       6.08
C       1.97      25.75       5.49
C       1.98      26.93       6.23
C       1.99      26.86       7.64
C       2.00      25.60       8.25
C       2.01      24.45       7.48
C       1.99      28.04       8.49
C       1.99      29.33       8.08
C       2.00      31.78       8.31
C       1.99      30.51       8.93
C       1.98      30.45      10.33
C       1.97      31.62      11.07
C       1.99      32.90      10.49
C       2.01      32.93       9.09
C       1.99      21.71       0.61
C       1.97      34.91      24.64
C       1.98      34.96      23.26
C       1.99      36.21      22.61
C       2.00      37.38      23.39
C       2.01      37.28      24.78
C       1.99      36.36      21.16
C       1.99      35.36      20.25
C       2.00      34.34      18.01
C       1.99      35.51      18.80
C       1.98      36.76      18.15
C       1.97      36.81      16.77
C       1.99      35.66      15.96
C       2.01      34.44      16.63
O       2.93      34.97      11.09
O       2.93      35.15      13.85
O       2.93       8.77      12.32
O       1.05      34.28      12.15
O       1.05       8.20      11.19
O       1.05      36.41      13.92
O       2.93      22.22       2.71
O       2.93      19.92       4.24
O       2.93      22.40       5.47
O       1.05      20.96       2.64
O       1.05      23.09       4.41
O       1.05      20.49       5.37
F       2.01      17.22       3.66
F       1.97      19.35       7.89
F       1.97       9.34       8.67
F       2.01      11.47      12.90
F       2.01      23.25       8.10
F       1.97      25.84       4.14
F       1.97      31.53      12.42
F       2.01       5.44       8.46
F       2.01      24.08       0.66
F       1.97      19.35       0.39
F       1.97       9.34      16.17
F       2.01      33.30      15.90
