68

Zn       7.81       5.90       8.09
Zn       8.17       8.70       8.10
H       1.17       5.77       8.09
H       6.42       2.24      13.22
H       7.16       0.89      14.10
H       6.15       0.06      11.96
H       9.94      14.51      11.94
H       8.13       2.01      10.64
H       6.39       2.21      10.67
H       9.56      12.36       2.97
H       7.80      12.57       2.99
H       8.82      13.71       2.09
H       6.04       0.10       4.25
H      14.80       8.83       8.10
H       9.83      14.54       4.23
H       9.58      12.39       5.53
H       7.85      12.59       5.55
H       7.80       5.13      14.95
H       8.18       9.47       1.24
H       8.94      13.35      10.23
H       7.04       1.26       5.97
H       7.83       5.18       1.25
H       8.14       9.43      14.95
H       8.18       2.03      13.20
C       7.98       7.27      10.70
C       8.97      13.93       9.31
C       7.25       2.75       8.10
C       8.72      11.85       8.10
C      10.55       6.84       8.10
C       5.42       7.76       8.10
C       3.98       7.89       8.10
C      11.99       6.71       8.10
C       1.36       7.88       8.10
C      14.62       6.72       8.10
C      13.21       6.70       8.10
C       7.99       7.33       5.49
C       2.76       7.90       8.10
C       7.91       6.11       0.69
C       8.07       8.49      15.50
C       8.00       7.32       1.41
C       7.97       7.28      14.78
C       8.10       8.54       0.69
C       7.88       6.07      15.50
C       8.00       7.33       2.83
C       7.98       7.28      13.37
C       7.18       1.44      10.65
C       7.98       7.27      12.15
C       7.10       0.62      11.94
C       7.22       1.49      13.18
C       8.80      13.16       5.54
C       8.88      13.99       4.26
C       8.76      13.11       3.01
C       8.00       7.33       4.04
C       7.07       0.67       9.36
C       8.91      13.93       6.83
C       7.10       1.34       8.12
C       8.87      13.26       8.08
C       7.00       0.67       6.88
N       8.59      10.70       8.11
N       7.39       3.91       8.08
O       7.85       6.14      10.14
O       8.12       8.46       6.06
O       8.11       8.41      10.14
O       7.86       6.20       6.06
O       9.86       5.77       8.10
O       6.11       8.83       8.10
O      10.12       8.04       8.09
O       5.86       6.57       8.10
