45

Al       3.69       4.45       6.02
Al       0.20       4.45       6.05
H      -1.55       3.10       4.88
H       1.97       5.85       7.12
H      -3.60       8.56       5.70
H       4.00       0.34       6.38
H       4.00       4.86       1.69
H       2.71       4.12       9.36
H       2.43       3.06      10.76
H      -4.51       4.82      10.98
C       1.92       4.72       3.68
C       1.97       2.07       6.10
C      -1.53       4.17       8.40
C      -1.57       6.83       5.98
C       1.90       0.57       6.10
C      -1.49       8.33       5.99
C       0.70      -0.13       5.93
C      -0.29       9.03       6.16
C      -2.66       9.09       5.86
C       3.07      -0.19       6.23
C      -2.62       3.88      10.73
C       2.97       4.99       1.36
C      -1.55       3.93       9.84
C       1.90       4.95       2.23
C       2.53       5.22       0.04
C      -2.14       3.66      12.05
C      -4.06       3.99      10.42
S      -0.01       3.68      10.60
S       0.36       5.18       1.46
N      -0.59       0.59       5.88
N       0.99       8.31       6.20
O       3.05       4.51       4.23
O       0.85       2.66       5.98
O      -0.37       4.17       7.85
O      -2.72       6.31       5.88
O      -2.65       4.40       7.82
O      -0.46       6.24       6.12
O       0.77       4.72       4.25
O       3.12       2.60       6.17
O      -1.55       3.90       5.43
O       1.95       5.00       6.64
O      -1.11       0.82       6.98
O      -1.08       0.84       4.78
O       1.49       8.05       7.31
O       1.51       8.08       5.10
