89

Al       4.44       4.54       7.93
H       4.25      20.02       4.67
H       3.23       1.39       1.40
H       0.92       7.47       4.53
H       1.52       7.79       1.31
H       3.36      18.60      13.94
H       3.25      21.25      12.26
H       1.81      15.33       8.49
H       1.18      18.25       7.18
H       1.71       8.51      14.10
H       4.63      24.02      12.54
H       3.73      11.73       8.51
H       4.15       8.67       7.28
C       2.27       4.63       5.85
C       2.32       6.26       9.05
C       2.60      20.81       8.88
C       2.69       5.77       2.18
C       2.37       4.59       1.48
C       2.93       8.77      11.90
C       2.76      10.00      11.23
C       2.61      17.10      11.16
C       2.97      17.10       9.80
C       2.47      10.00       9.86
C       2.42       8.79       9.16
C       2.49       7.56       9.82
C       2.70       7.56      11.21
C       2.90      18.29       9.06
C       2.51      19.50       9.66
C       2.09      19.48      11.01
C       2.16      18.29      11.76
C       2.02       3.43       2.21
C       2.06       3.46       3.61
C       2.31       4.64       4.33
C       2.60       5.80       3.59
C       2.56      14.79      13.95
C       2.65      12.35      13.98
C       2.39       4.57       0.01
C       2.64      15.84      11.92
C       2.77      13.55      11.86
C       2.79      11.27      11.97
C       2.31      20.30       4.35
C       1.47       2.18       1.55
C       2.85       7.13       4.24
C       3.26       6.99       1.49
C       1.60      18.34      13.17
C       1.49      20.67      11.70
C       3.56      15.89       9.09
C       3.14      18.19       7.59
C       3.47       8.69      13.32
C       2.82      24.46      12.00
C       1.97      11.23       9.12
C       2.21       8.82       7.68
N       2.66      13.56      13.27
N       2.57      12.38      15.31
N       2.49      14.78      15.28
N       2.52      15.92      13.26
N       2.78      14.71      11.21
N       2.70      11.20      13.31
N       2.85      12.39      11.23
O       1.59      21.59       9.01
O       1.21       4.18       6.39
O       1.25       6.10       8.38
O       3.64      21.03       8.21
O       3.30       5.45       9.14
O       3.30       5.08       6.46
O       3.30      19.80       5.01
O       1.21      19.74       4.32
O       2.25       1.13       1.40
O       0.27       2.16       1.30
O       1.87       7.74       4.81
O       3.97       7.65       4.18
O       2.49       8.04       1.30
O       4.47       7.00       1.26
O       2.38      18.71      14.17
O       4.80      18.19      13.31
O       2.28      21.45      12.41
O       4.69      20.83      11.66
O       2.79      15.19       8.28
O       0.35      15.71       9.19
O       2.13      18.37       6.80
O       4.24      17.88       7.13
O       2.69       8.39      14.33
O       0.27       8.80      13.43
O       3.67      23.83      12.77
O       1.63      24.15      11.93
O       2.76      11.87       8.28
O       0.76      11.47       9.21
O       3.21       8.48       6.91
O       1.12       9.15       7.20
