100

Zn       4.43       6.42      11.90
Zn       7.20       6.40      11.98
Zn       7.10       6.38       0.84
Zn       4.33       6.40       0.94
H       2.07       5.63      13.72
H       9.58       7.20      10.04
H       3.68       1.90      11.74
H       7.96      10.92      11.90
H       4.30       4.53       3.89
H       2.96       2.87       5.12
H       4.28       4.49       8.89
H       2.94       2.85       7.62
H       7.76       6.69      16.46
H       3.68       5.74      20.16
H       9.62       5.32      22.95
H       1.90       7.46       2.67
H       7.73       1.83       0.95
H       3.53      10.94       0.93
H       6.32       9.23       8.37
H       5.96       9.03       4.25
C       5.84       9.00      11.95
C       5.88       6.44       9.32
C       5.81       3.81      11.84
C       5.70       6.29      14.55
C       5.63       8.99       0.81
C       5.84       6.52       3.51
C       5.67       3.80       1.06
C       5.80       6.22      22.06
C       1.60       6.00      12.81
C      10.03       6.82      10.96
C      11.41       6.68      11.25
C       0.22       6.14      12.53
C       4.70       1.51      11.78
C       6.95      11.31      11.89
C       5.80       2.34      11.81
C       5.84      10.47      11.89
C       6.56      12.66      11.86
C       5.08       0.15      11.81
C       5.88       6.46       5.01
C       5.07       5.50       5.69
C       6.74       7.29       5.71
C       4.29       4.53       4.98
C       3.54       3.61       5.67
C       5.92       6.39       7.82
C       6.79       7.23       7.13
C       5.07       5.48       7.12
C       4.28       4.51       7.80
C       3.53       3.60       7.09
C       6.77       6.46      16.85
C       4.67       5.96      19.76
C       5.69       6.24      16.02
C       5.76       6.19      20.58
C       5.04       6.05      18.40
C       6.40       6.35      18.21
C       9.97       5.83       0.03
C       1.46       6.93       1.82
C       0.09       6.75       1.52
C      11.33       6.00       0.34
C       6.71       1.47       0.98
C       4.55      11.31       0.93
C       5.63       2.32       1.05
C       5.64      10.46       0.87
C       4.96      12.66       1.00
C       6.30       0.12       0.96
C       7.79       8.05       7.92
C       7.60       8.28       4.97
S       1.52       6.97      10.49
S      10.12       5.84      13.28
S       7.31       1.48      11.88
S       4.33      11.33      11.85
S       4.22       5.90      16.89
S       7.23       6.51      19.71
S       9.96       7.18       2.15
S       1.55       5.59      23.48
S       4.10       1.49       1.09
S       7.17      11.29       0.89
N       2.37       6.41      11.81
N       9.26       6.41      11.96
N       9.16       6.41       0.91
N       2.27       6.35       0.94
O       4.71       8.43      12.11
O       6.97       8.42      11.82
O       6.97       6.24       9.93
O       4.75       6.69       9.85
O       6.93       4.37      12.09
O       4.71       4.41      11.60
O       4.58       6.11      13.94
O       6.83       6.52      14.00
O       6.76       8.40       0.91
O       4.50       8.42       0.67
O       4.71       6.77       2.97
O       6.93       6.31       2.91
O       4.56       4.40       1.30
O       6.79       4.35       0.82
O       6.95       6.41      22.58
O       4.70       6.06      22.68
O       7.29       9.17       8.53
O       8.96       7.77       8.05
O       6.93       9.19       4.20
O       8.82       8.32       5.03
