330

Zn       2.68       0.62       6.93
Zn      -1.33      -4.89      14.35
Zn      -5.34       4.28      15.42
Zn       1.34       9.98      11.42
Zn       5.35      15.49       4.00
Zn       9.36       6.31       2.93
H       5.46       1.61       6.82
H       0.93      -1.75       7.20
H      -2.96      -3.14      11.20
H       8.01      -1.89       9.32
H       5.32      -0.02      12.12
H       6.46      -1.22      14.00
H       4.00      -1.91      10.44
H       2.86      -0.56      10.38
H       2.91      -1.71       9.04
H       8.46       0.97       9.29
H       8.40       0.72       7.53
H       7.89       2.27       8.22
H      -2.73      15.79       0.80
H      -3.31      17.08       2.84
H       0.89      17.76       3.58
H       1.44      16.47       1.52
H      -2.93      16.04       5.24
H      -3.20      16.60       6.90
H      -4.35      17.02       5.62
H       3.20       0.17       3.40
H       4.29      -1.21       3.14
H       4.52      -0.12       4.53
H       1.45      -5.49      13.55
H      -3.08      -3.49      16.27
H       5.08       0.68      15.47
H       4.00      -1.57      15.34
H       1.32      -0.09      12.31
H       2.45       2.14      12.41
H      -0.01      -0.60      14.79
H      -1.15      -1.32      13.64
H      -1.09      -1.91      15.31
H       4.46      -3.04      12.87
H       4.39      -4.44      13.96
H       3.88      -4.62      12.27
H       1.28       3.39       4.28
H       0.70       4.51       2.14
H       4.90       4.81       1.18
H       5.45       3.67       3.33
H       1.09       7.10       1.84
H       0.82       8.26       0.52
H      -0.34       6.95       0.80
H      -0.82      -7.74      16.50
H       0.27      -7.28      17.83
H       0.51      -6.62      16.19
H      -2.56       3.89      16.34
H       4.95       5.23      13.24
H       1.06       2.46      10.03
H      -0.01       3.47      12.05
H      -2.70       0.11      12.27
H      -1.57      -0.92      10.30
H      -4.03       2.51      11.48
H       6.88       1.88      12.68
H       6.94       3.62      12.36
H       0.44       2.07      14.55
H       0.38       3.71      15.22
H      -0.13       2.34      16.22
H       5.30      12.60      13.28
H       4.71      10.19      13.38
H      -3.13       9.21      13.60
H      -2.57      11.64      13.50
H       5.10       8.63      11.28
H       4.83       6.91      10.94
H       3.67       7.81      11.93
H      -4.83       7.57      16.80
H      -3.74       8.48      15.74
H      -3.50       6.73      15.99
H      -1.44       8.99      11.54
H       3.09      12.34      11.15
H       6.98      13.74       7.15
H      -3.99      12.49       9.03
H      -1.31      10.62       6.23
H      -2.44      11.81       4.35
H       0.02      12.50       7.91
H       1.16      11.15       7.97
H       1.10      12.30       9.32
H      -4.45       9.62       9.06
H      -4.39       9.87      10.82
H      -3.87       8.32      10.14
H       6.75      -5.19      17.55
H       7.33      -6.48      15.52
H       3.13      -7.17      14.78
H       2.58      -5.88      16.84
H       6.94      -5.45      13.12
H       7.21      -6.01      11.45
H       8.37      -6.42      12.73
H       0.82      10.42      14.96
H      -0.27      11.80      15.22
H      -0.51      10.71      13.83
H       2.57      16.09       4.80
H       7.10      14.08       2.09
H      -1.06       9.91       2.88
H       0.01      12.17       3.02
H       2.70      10.68       6.04
H       1.56       8.46       5.95
H       4.03      11.19       3.57
H       5.17      11.91       4.71
H       5.11      12.51       3.04
H      -0.44      13.63       5.49
H      -0.38      15.03       4.39
H       0.14      15.21       6.08
H       2.74       7.20      14.08
H       3.32       6.08      16.22
H      -0.88       5.79      17.18
H      -1.43       6.92      15.02
H       2.93       3.49      16.52
H       3.20       2.33      17.83
H       4.36       3.64      17.55
H       4.84      18.33       1.85
H       3.75      17.87       0.53
H       3.51      17.21       2.16
H       6.58       6.70       2.02
H      -0.93       5.36       5.11
H       2.96       8.13       8.33
H       4.03       7.12       6.30
H       6.71      10.48       6.08
H       5.58      11.51       8.06
H       8.04       8.08       6.87
H      -2.86       8.71       5.68
H      -2.92       6.97       6.00
H       3.58       8.53       3.80
H       3.64       6.88       3.14
H       4.15       8.25       2.13
H      -1.28      -2.01       5.08
H      -0.70       0.40       4.98
H       7.15       1.39       4.75
H       6.59      -1.04       4.85
H      -1.08       1.96       7.07
H      -0.81       3.69       7.42
H       0.35       2.78       6.42
H       8.85       3.03       1.55
H       7.76       2.11       2.61
H       7.52       3.86       2.36
C       6.60      -0.87      10.60
C      -3.54      -3.00      13.83
C       7.83      -2.25      12.71
C       8.27      -2.44      11.39
C       7.67      -1.75      10.35
C       6.16      -0.70      11.92
C       6.78      -1.37      12.97
C       5.94      -0.19       9.48
C       4.58      -0.34       9.12
C       6.50       0.67       8.52
C       3.53      -1.17       9.77
C       7.89       1.19       8.38
C      -4.29       4.82      18.07
C      -0.61      16.06       1.02
C      -1.95      16.21       1.42
C      -2.27      16.94       2.56
C      -1.26      17.54       3.34
C       0.09      17.34       2.96
C       0.40      16.61       1.82
C      -1.60      18.39       4.48
C       1.52      -3.08       5.54
C       2.87      -1.48       4.72
C      -3.28      16.88       5.84
C       3.77      -0.62       3.90
C       2.60      -0.98      13.81
C       4.49       2.88      14.04
C       3.83       1.54      13.95
C       4.26       0.49      14.77
C       3.67      -0.76      14.69
C       2.15       0.08      12.99
C       2.78       1.32      13.05
C       1.93      -2.29      13.78
C       0.57      -2.53      14.09
C       2.49      -3.55      13.52
C      -0.48      -1.54      14.48
C       3.88      -3.93      13.13
C       3.74       2.64       5.14
C       3.40       3.44       3.92
C       2.07       3.71       3.60
C       1.74       4.34       2.40
C       2.75       4.71       1.49
C       4.10       4.48       1.85
C       4.42       3.86       3.05
C       2.41       5.28       0.18
C      -2.50      -4.26      18.25
C      -1.14      -5.76      17.27
C       0.73       7.21       0.81
C      -0.25      -6.91      16.93
C      -1.41       1.85      12.30
C       0.47       0.12       8.84
C      -0.19       0.71      10.04
C       0.25       1.95      10.54
C      -0.35       2.51      11.67
C      -1.86       0.62      11.79
C      -1.24       0.05      10.68
C      -2.08       2.48      13.45
C      -3.44       2.87      13.50
C      -1.52       2.88      14.67
C      -4.49       2.72      12.45
C      -0.14       2.74      15.19
C      -0.28      -7.46      13.49
C      -4.62      12.27      13.40
C      -5.96      11.85      13.34
C      -6.28      10.50      13.39
C      -5.27       9.53      13.53
C      -3.93       9.95      13.54
C      -3.61      11.30      13.48
C      -5.62       8.11      13.69
C       5.53       7.34      12.92
C      -5.16       7.25      14.71
C       4.74       7.69      11.71
C      -4.26       7.52      15.87
C      -2.59      11.46       7.76
C       7.56      13.59       4.53
C      -3.82      12.85       5.64
C      -4.25      13.04       6.96
C      -3.66      12.34       8.01
C      -2.14      11.29       6.43
C      -2.76      11.96       5.38
C      -1.92      10.79       8.87
C      -0.56      10.94       9.24
C      -2.48       9.93       9.83
C       0.49      11.77       8.58
C      -3.87       9.41       9.97
C       8.30       5.77       0.29
C       4.63      -5.47      17.33
C       5.96      -5.62      16.94
C       6.29      -6.34      15.79
C       5.28      -6.94      15.02
C       3.93      -6.75      15.39
C       3.61      -6.02      16.53
C       5.62      -7.80      13.87
C       2.50      13.67      12.82
C       1.15      12.07      13.63
C       7.30      -6.29      12.51
C       0.25      11.21      14.45
C       1.42      11.58       4.55
C      -0.47       7.71       4.32
C       0.19       9.05       4.40
C      -0.25      10.10       3.58
C       0.35      11.35       3.66
C       1.86      10.52       5.36
C       1.24       9.27       5.30
C       2.09      12.88       4.57
C       3.45      13.12       4.26
C       1.53      14.14       4.84
C       4.49      12.14       3.87
C       0.14      14.53       5.22
C       0.28       7.95      13.21
C       0.62       7.15      14.43
C       1.95       6.88      14.76
C       2.27       6.25      15.96
C       1.26       5.88      16.87
C      -0.08       6.11      16.51
C      -0.40       6.73      15.30
C       1.61       5.32      18.17
C       6.52      14.85       0.10
C       5.16      16.36       1.08
C       3.29       3.39      17.55
C       4.26      17.50       1.42
C       5.43       8.74       6.05
C       3.54      10.47       9.51
C       4.21       9.88       8.31
C       3.77       8.64       7.81
C       4.36       8.09       6.69
C       5.88       9.97       6.56
C       5.26      10.55       7.67
C       6.10       8.11       4.91
C       7.46       7.72       4.86
C       5.54       7.71       3.68
C       8.51       7.88       5.90
C       4.15       7.85       3.16
C       4.29      18.05       4.86
C       8.64      -1.68       4.95
C       9.98      -1.26       5.02
C      10.30       0.09       4.96
C       9.29       1.07       4.83
C       7.95       0.64       4.81
C       7.63      -0.71       4.87
C       9.64       2.48       4.66
C      -1.51       3.25       5.43
C       9.17       3.35       3.64
C      -0.72       2.91       6.65
C       8.27       3.07       2.49
N       4.34       0.38       8.01
N       5.50       0.99       7.67
N       1.49      -1.99       6.33
N       2.30      -1.01       5.84
N       0.33      -3.85      14.02
N       1.49      -4.45      13.66
N      -2.53      -4.12      16.91
N      -1.72      -5.03      16.30
N      -3.68       3.47      14.68
N      -2.52       3.46      15.38
N       5.50       6.11      13.47
N      -5.73       6.04      14.56
N      -0.32      10.21      10.34
N      -1.49       9.60      10.69
N       2.53      12.58      12.03
N       1.72      11.60      12.51
N       3.68      14.44       4.34
N       2.52      15.04       4.69
N       6.54      14.72       1.44
N       5.74      15.62       2.05
N       7.70       7.13       3.67
N       6.54       7.13       2.98
N      -1.49       4.48       4.88
N       9.75       4.55       3.80
O      -2.72      -3.91      13.42
O      -3.79      -2.70      15.02
O      -5.31       4.47      17.36
O      -3.08       4.71      17.72
O       5.30       2.99      15.03
O       4.24       3.77      13.18
O       2.72       2.20       5.81
O       4.95       2.40       5.42
O       1.29       0.93       8.25
O       0.22      -1.07       8.50
O      -1.30      -6.67      13.54
O       0.93      -7.10      13.57
O       6.74      14.51       4.93
O       7.81      13.29       3.33
O       9.33       6.13       1.00
O       7.10       5.89       0.64
O      -1.29       7.60       3.32
O      -0.22       6.83       5.18
O       1.30       8.39      12.55
O      -0.93       8.20      12.94
O       2.73       9.67      10.11
O       3.80      11.66       9.85
O       5.32      17.26       4.81
O       3.09      17.69       4.79
