79

Al       5.16      17.62      10.21
H       3.18      15.51      13.89
H       3.25      15.43      16.36
H       3.54       4.03       0.27
H       3.24      21.93       5.24
H       2.35      23.76       4.64
H       1.18       2.32       3.37
H       2.32       3.73       2.14
H       3.55      21.82      10.18
H       3.64      23.99       9.02
H       3.62       4.03       6.51
H       3.04      11.17       8.94
H       1.80       9.86       7.74
H       1.62       7.72       6.56
H       2.62       5.85       5.87
H       3.32      15.50       6.54
H       3.17      13.41       5.24
H       3.99       9.34       3.33
H       3.53      19.75      16.43
H       2.38      19.41      18.31
H       1.31       7.73       0.35
H       2.65       8.02       2.16
C       3.19      17.65      12.27
C       3.18      15.82       9.21
C       3.19      19.38       9.15
C       3.24      16.43      14.46
C       3.30      16.39      15.85
C       4.10      16.56      18.81
C       4.17      16.55      20.19
C       3.14      20.75       7.01
C       3.27      21.95       6.33
C       2.94      24.59       5.04
C       3.00      25.77       4.32
C       3.23      17.65      13.76
C       3.40      17.58      16.59
C       3.48      17.57      18.07
C       2.43       5.88       0.51
C       2.48       5.87       1.99
C       2.42       4.67       2.69
C       3.46      21.86       9.10
C       3.53      23.09       8.44
C       4.23      25.56       6.77
C       4.30      26.76       6.08
C       3.07      13.30       9.09
C       3.06      12.10       8.38
C       2.31       9.73       6.78
C       2.21       8.52       6.12
C       3.25      20.67       8.40
C       3.46      23.15       7.03
C       3.55      24.43       6.30
C       2.40       3.36       4.83
C       2.47       4.64       4.09
C       2.58       5.85       4.79
C       3.24      14.54       7.05
C       3.17      13.36       6.32
C       3.56      10.63       4.97
C       3.48       9.43       4.29
C       3.30      18.82      14.52
C       3.41      18.80      15.90
C       2.92      18.62      18.83
C       2.98      18.64      20.22
C       3.17      14.54       8.45
C       3.08      12.12       6.98
C       2.99      10.84       6.24
C       2.79       8.34       4.85
C       2.66       7.08       4.11
C       2.60       7.07       2.71
O       2.25      18.57       8.90
O       2.25      18.28      11.70
O       2.25      16.02      10.05
O       4.10      19.20      10.03
O       4.11      16.65       8.93
O       4.10      16.99      11.68
F       3.05      13.24      10.45
F       3.32      20.03      13.89
F       2.96      19.62       6.27
F       4.29      11.62       4.38
F       4.72      15.53      18.16
F       4.90      25.51       7.96
