220

Cu       5.69      30.47      28.76
Cu       3.80      28.50      27.27
Cu       4.09      28.35      30.45
Cu      19.34      19.24       3.50
Cu      17.75      20.97       5.68
Cu      18.56      22.22       2.89
Cu      10.03       3.09      12.43
Cu      12.58       4.47      11.05
Cu      10.97       5.98      13.30
Cu      25.32      14.38      20.20
Cu      27.08      12.31      21.89
Cu      25.97      11.53      19.04
H      20.15      15.92      11.45
H      17.38      13.80       8.91
H      21.12      14.78      13.43
H      19.71      10.87      14.57
H      17.89       9.78      13.27
H      16.55      11.56       9.58
H       5.52       1.16      21.50
H       2.87       3.48      23.97
H       6.12       1.96      19.23
H       4.43       5.64      17.73
H       2.75       6.86      19.07
H       1.80       5.54      23.06
H      24.73      17.98      27.15
H      27.74      20.22      25.05
H      23.80      18.86      29.29
H      25.44      22.45      31.02
H      27.31      23.61      29.91
H      28.75      22.23      26.09
H       8.84      31.10       6.35
H      12.84      29.93       7.46
H       7.76      30.11       4.36
H       9.98      27.42       1.83
H      12.20      26.60       2.56
H      13.98      28.11       6.19
H       5.77      32.86      26.60
H       3.85      29.73      24.32
H       5.12      27.58       0.47
H       8.19      30.92      30.68
H       1.76      26.15      26.78
H       1.75      26.29      31.12
H      19.35      16.42       4.94
H      17.73      18.91       8.09
H      20.52      22.85       0.47
H      21.36      18.65       1.11
H      15.89      23.29       6.84
H      16.68      24.77       2.85
H       9.83       0.44      10.70
H      13.38       2.22       8.97
H       8.73       6.71      15.42
H       7.71       2.59      14.56
H      14.94       6.56      10.52
H      12.87       8.46      13.81
H      25.24      16.82      22.22
H      27.13      13.82      24.70
H      23.90      11.41      16.63
H      23.38      15.51      17.92
H      29.23      10.02      22.34
H      27.76       8.98      18.40
H       4.13       1.65      24.95
H       4.70      32.14      22.83
H      18.95      17.10       9.61
H      18.56      15.05       7.36
H       9.79      31.97       8.36
H      12.84      32.24       8.05
H      26.50      18.39      23.91
H      26.09      16.23      26.06
H       6.63      28.80       2.42
H       8.86      29.00       0.30
H      21.61      11.73      15.66
H      22.04      14.77      15.45
H      23.05      19.59      31.50
H      23.27      22.65      31.69
H       6.63       2.68      16.96
H       6.56       5.75      16.86
H      29.67      24.20      26.99
H      29.27      24.55      30.02
H      15.89       9.17      10.23
H      15.49       9.45      13.26
H       0.97       7.71      22.25
H       0.58       7.53      19.21
H      14.39      25.88       3.15
H      14.70      25.82       6.21
C      19.61      13.93      12.14
C      19.55      15.03      11.24
C      18.78      14.98      10.07
C      18.02      13.83       9.80
C      18.00      12.73      10.69
C      18.80      12.79      11.88
C      20.47      13.92      13.27
C      20.53      12.82      14.13
C      19.68      11.73      13.89
C      18.79      11.69      12.79
C      17.91      10.61      12.56
C      17.08      10.57      11.43
C      17.17      11.60      10.48
C       4.74       2.95      20.57
C       4.86       2.01      21.63
C       4.19       2.20      22.85
C       3.38       3.33      23.02
C       3.20       4.28      21.98
C       3.89       4.09      20.75
C       5.46       2.82      19.36
C       5.40       3.80      18.36
C       4.53       4.89      18.52
C       3.75       5.05      19.70
C       2.85       6.13      19.87
C       2.13       6.30      21.06
C       2.34       5.40      22.12
C      25.40      19.78      28.16
C      25.42      18.82      27.11
C      26.26      18.97      25.99
C      27.09      20.10      25.92
C      27.16      21.04      26.97
C      26.30      20.89      28.09
C      24.51      19.69      29.25
C      24.47      20.68      30.25
C      25.40      21.72      30.21
C      26.33      21.85      29.15
C      27.29      22.89      29.10
C      28.18      23.02      28.02
C      28.08      22.12      26.95
C       9.76      29.64       5.05
C       9.73      30.50       6.17
C      10.85      30.67       7.00
C      11.99      29.86       6.78
C      12.04      28.94       5.70
C      10.94      28.88       4.79
C       8.67      29.54       4.15
C       8.76      28.78       2.97
C       9.92      28.05       2.72
C      11.01      28.06       3.63
C      12.16      27.25       3.44
C      13.19      27.21       4.38
C      13.15      28.08       5.48
C       5.29      31.96      26.24
C       4.77      31.68      24.96
C       4.33      30.35      25.06
C       6.14      29.03      32.41
C       7.39      29.68      32.39
C       7.42      30.30      31.12
C       1.93      26.34      27.84
C       1.30      25.77      28.97
C       1.91      26.42      30.05
C      18.95      17.21       5.57
C      18.57      17.18       6.92
C      18.15      18.49       7.19
C      20.57      21.82       0.80
C      21.36      20.76       0.31
C      20.98      19.67       1.11
C      16.24      23.48       5.83
C      15.88      24.52       4.94
C      16.62      24.23       3.78
C      10.66       1.07      10.41
C      11.65       0.84       9.43
C      12.49       1.96       9.55
C       8.65       5.69      15.05
C       7.78       4.66      15.45
C       8.13       3.58      14.62
C      14.26       6.87      11.30
C      14.35       7.97      12.18
C      13.22       7.83      13.00
C      25.73      15.94      22.63
C      26.19      15.72      23.94
C      26.67      14.40      23.91
C      23.91      12.37      17.13
C      23.20      13.54      16.82
C      23.66      14.47      17.77
C      28.71       9.93      21.39
C      28.91       9.02      20.34
C      27.96       9.41      19.37
C       4.31       1.24      23.95
C       4.64      32.58      23.83
C      18.77      16.12       9.16
C      18.62      16.04       7.82
C      10.80      31.70       8.02
C      11.85      32.42       8.48
C      26.29      17.99      24.91
C      26.17      16.65      25.05
C       7.65      28.80       2.01
C       7.84      28.88       0.67
C      21.48      12.73      15.24
C      22.20      13.74      15.78
C      23.45      20.59      31.30
C      22.94      21.65      31.97
C       6.30       3.69      17.21
C       6.82       4.74      16.53
C      29.22      24.05      27.97
C      29.68      24.76      29.03
C      16.09       9.50      11.25
C      15.35       9.01      12.27
C       1.16       7.38      21.23
C       0.45       7.93      20.22
C      14.24      26.21       4.19
C      14.92      25.58       5.17
N       4.56      29.88      26.31
N       5.16      30.88      27.04
N       6.28      30.04      30.46
N       5.49      29.25      31.25
N       2.83      27.31      29.60
N       2.84      27.25      28.23
N      18.28      19.25       6.08
N      18.79      18.46       5.08
N      20.04      20.05       2.00
N      19.78      21.38       1.80
N      17.35      23.11       3.96
N      17.11      22.64       5.23
N      12.03       2.80      10.50
N      10.90       2.23      11.05
N       9.13       3.94      13.80
N       9.46       5.25      14.07
N      12.51       6.74      12.64
N      13.16       6.14      11.59
N      26.52      13.88      22.67
N      25.93      14.84      21.88
N      24.56      13.89      18.59
N      24.72      12.58      18.18
N      27.25      10.47      19.82
N      27.72      10.79      21.08
