60

Al       5.84       6.69       8.50
Al       2.48       6.74       8.53
Al       2.49       0.01       0.04
Al       5.56      13.45      17.07
H       6.32      10.41      13.95
H       3.17       2.79       3.28
H       2.25       8.68      12.43
H       5.62       3.40       5.94
H       4.20       8.45       8.86
H       0.84       5.03       8.96
H       3.85      11.80      16.62
H       0.78       1.64       0.53
C       4.19       5.05      10.28
C       0.75       8.34       6.76
C       4.11       5.33       6.58
C       0.84       8.39      10.26
C       1.62      10.53      13.40
C       5.13       2.68       3.96
C       0.58      10.90      14.16
C       4.15       2.37       3.08
C       1.56       9.53      12.34
C       4.96       3.57       5.09
C       0.81       9.54      11.22
C       4.13       4.63       5.25
C       0.71      11.87       2.90
C       4.00       1.58      14.19
C       0.74      11.05       3.80
C       4.04       2.38      13.27
C       0.76      10.13       4.79
C       4.10       3.28      12.26
C       0.77       9.30       5.69
C       4.15       4.10      11.36
C       4.18       1.51       1.89
C       0.55      11.88      15.26
C       3.99       0.64      15.29
C       0.71      12.81       1.80
I       3.58      11.30      13.57
I       0.37       1.84       3.89
I       6.28      11.13      10.63
I       2.83       5.47       3.84
O       2.98       5.76       6.98
O       6.43       8.07       9.73
O       5.34       5.51       9.96
O       1.86       8.13       7.36
O       5.21       5.41       7.22
O       1.98       7.85      10.05
O       6.33       7.81       7.03
O       3.07       5.34       9.74
O       4.17       7.52       8.58
O       0.82       5.89       8.53
O       5.13       0.26      15.70
O       1.86      13.20       1.41
O       3.03       1.20       1.42
O       6.09      12.24      15.66
O       2.85       0.32      15.75
O       6.28      13.12       1.32
O       1.65      12.29      15.75
O       5.30       1.16       1.39
O       3.87      12.67      17.05
O       0.81       0.79       0.06
