200

Zn       6.71       8.99      16.58
Zn       9.49       9.04      16.60
Zn       9.32       9.00      31.87
Zn       6.54       9.05      31.85
H      11.65       7.52      17.94
H      14.15       7.43      17.92
H      11.60      10.51      15.07
H       4.60       7.22      17.74
H       4.54      10.73      15.53
H       2.02      10.72      15.44
H       5.94       4.68      16.80
H       6.02       2.20      16.71
H      10.23       4.81      16.44
H       5.85      13.26      16.34
H      10.15      13.30      16.55
H      10.11      15.79      16.50
H      10.31       9.00      20.93
H      11.47       9.06      23.12
H       6.04       8.97      20.72
H       5.72       9.03      27.52
H       4.57       9.08      25.33
H       9.99       8.98      27.73
H      10.34       8.76       3.04
H      10.26       8.86       5.53
H       6.05       9.01       2.92
H      10.32       9.12      12.40
H       6.03       8.87      12.27
H       6.11       8.92       9.78
H       4.38       7.53      30.51
H       1.87       7.45      30.52
H       4.76      10.39       0.24
H      11.43       7.23      30.72
H      11.49      10.75      32.91
H      14.01      10.75      33.00
H      10.10       4.70      31.60
H      10.03       2.22      31.68
H       5.81       4.82      31.96
H      10.18      13.27      32.10
H       5.88      13.32      31.88
H       5.93      15.81      31.90
H      15.86       9.96      14.64
H       0.27       7.42      17.87
H      10.04       0.49      16.25
H       6.11      17.57      16.30
H       6.24       9.25       7.24
H      10.14       9.26       8.08
H       0.50       9.84       0.67
H      15.76       7.44      30.57
H       6.01       0.50      32.13
H       9.94      17.58      32.09
H      11.38      10.71      27.25
H       4.66      10.69      21.19
C       8.05       6.40      16.64
C       8.22       9.03      19.20
C       8.02      11.62      16.51
C       8.13       8.99      13.99
C       7.98       6.42      31.78
C       7.82       9.07      29.25
C       8.01      11.64      31.95
C       8.23       8.86       1.33
C      12.24       8.17      17.29
C      13.62       8.13      17.28
C      14.33       9.00      16.42
C      13.60       9.88      15.60
C      12.20       9.85      15.69
C      15.75       8.96      16.45
C       0.45       8.90      16.53
C       1.86       8.89      16.59
C       2.60       7.88      17.26
C       3.99       7.98      17.24
C       3.95       9.94      16.00
C       2.56       9.93      15.96
C       8.08       4.90      16.62
C       6.89       4.16      16.70
C       6.94       2.78      16.65
C       8.17       2.10      16.53
C       9.38       2.85      16.47
C       9.30       4.24      16.51
C       8.13       0.68      16.48
C       8.01      17.35      16.44
C       7.95      15.93      16.42
C       6.73      15.20      16.36
C       6.79      13.81      16.38
C       8.00      13.12      16.46
C       9.20      13.84      16.50
C       9.18      15.23      16.47
C       9.35       9.00      21.45
C       9.30       9.00      22.85
C      10.50       9.03      23.63
C       6.93       9.02      21.34
C       6.83       9.02      22.74
C       5.58       9.05      23.46
C       6.68       9.03      27.01
C       6.73       9.01      25.61
C       5.53       9.04      24.82
C       9.10       9.03      27.11
C       9.20       9.02      25.71
C      10.45       9.05      24.99
C       8.17       9.02      20.70
C       8.04       9.00      23.51
C       7.86       9.04      27.75
C       8.00       9.01      24.94
C       8.20       8.89       2.83
C       9.39       8.84       3.57
C       9.34       8.90       4.95
C       8.11       8.99       5.63
C       6.90       9.03       4.89
C       6.97       8.98       3.49
C       8.14       9.03       7.05
C       8.24       9.04       8.27
C       8.27       9.04       9.68
C       9.48       9.09      10.44
C       9.40       9.08      11.83
C       8.17       9.00      12.49
C       6.98       8.94      11.75
C       7.03       8.96      10.36
C       3.79       8.18      31.15
C       2.41       8.14      31.17
C       1.70       9.02      32.02
C       2.43       9.90      32.85
C       3.83       9.86      32.76
C       0.28       8.98      31.99
C      15.58       8.92      31.91
C      14.17       8.91      31.85
C      13.43       7.90      31.18
C      12.04       8.00      31.21
C      12.08       9.96      32.44
C      13.47       9.95      32.48
C       7.96       4.92      31.79
C       9.14       4.18      31.70
C       9.10       2.80      31.74
C       7.87       2.11      31.86
C       6.66       2.86      31.93
C       6.74       4.25      31.90
C       7.91       0.70      31.91
C       8.03      17.36      31.96
C       8.09      15.95      31.99
C       9.30      15.21      32.05
C       9.24      13.82      32.05
C       8.03      13.14      31.98
C       6.83      13.86      31.93
C       6.86      15.25      31.94
C      14.17      10.91      14.64
C       2.05       6.66      17.97
C      10.77       2.28      16.36
C       5.35      15.79      16.29
C       5.50       9.11       5.46
C      10.87       9.16       9.87
C       2.20      10.78       0.67
C      13.98       6.68      30.48
C       5.27       2.29      32.03
C      10.69      15.80      32.12
S      12.01       9.20      25.84
S       4.02       9.20      22.61
N      11.55       9.02      16.51
N       4.65       8.98      16.63
N       4.48       9.03      31.94
N      11.38       9.00      31.81
O       6.92       6.96      16.84
O       9.15       7.01      16.45
O       9.35       8.85      18.65
O       7.11       9.24      18.60
O       9.14      11.07      16.76
O       6.91      11.02      16.31
O       7.01       8.76      14.55
O       9.23       9.23      14.58
O       9.11       6.98      31.59
O       6.88       7.02      31.97
O       6.68       8.88      29.80
O       8.92       9.27      29.86
O       6.89      11.08      31.71
O       9.11      11.04      32.15
O       9.35       8.62       0.77
O       7.13       9.08       0.74
O      15.45      10.75      14.23
O      13.50      11.84      14.25
O       0.72       6.62      18.23
O       2.77       5.74      18.29
O      10.92       0.94      16.25
O      11.76       2.99      16.39
O       5.22      17.14      16.27
O       4.35      15.09      16.24
O       5.36       9.23       6.80
O       4.51       9.07       4.74
O      11.02       9.25       8.52
O      11.86       9.13      10.58
O       0.92      10.63       1.08
O       2.87      11.71       1.06
O      15.31       6.64      30.21
O      13.26       5.76      30.16
O       5.13       0.94      32.14
O       4.28       3.00      32.02
O      10.82      17.15      32.13
O      11.69      15.09      32.17
O      11.91      10.72      26.42
O      13.07       9.26      24.88
O      12.06       8.30      26.97
O       4.13      10.71      22.01
O       2.97       9.27      23.57
O       3.97       8.29      21.49
