114

Zn       2.89       9.46      10.11
Zn       5.39       7.61      10.62
Zn       5.62       9.85       8.40
Zn       3.76       7.31       7.87
H       8.70       8.45      12.49
H       6.86      10.39       4.40
H      11.04       7.99      13.20
H       0.00       7.25       6.21
H      11.24       7.53       7.15
H      13.01       7.03       5.52
H       1.82      -0.18       8.86
H       1.10      17.23      12.62
H       9.30       0.18      11.08
H       5.42      13.09       7.34
H       5.59      14.75       6.76
H       2.33      13.39      10.91
H       3.57       5.34      17.73
H       4.58       4.95      16.32
H       8.67      12.23       2.32
H       0.39      10.00      16.23
H       0.61       9.02      17.64
H       9.05       9.59       8.03
H      10.73       9.38       7.56
H       0.08       6.97      12.12
H       0.60       6.61      10.55
H       1.59       3.43       7.57
H       7.54       3.83       9.72
H       4.49      16.59       7.81
H       4.27       6.11      14.21
H       5.23       6.75       1.45
H      -2.09       7.52      12.63
H       4.57       6.81       3.87
H       1.47       9.37      14.08
C       5.25       5.09       9.17
C      10.22       8.70       9.43
C       9.51       8.42      11.77
C       3.93      12.12       9.25
C      -0.47       7.60       8.27
C       3.69      13.58       9.26
C       4.32      14.49       8.35
C       4.04      15.87       8.50
C       3.20      16.35       9.49
C       2.54      15.45      10.38
C       2.81      14.09      10.23
C      -2.14       7.29       6.55
C       4.64       1.34       8.93
C       4.41       2.72       8.95
C       5.93       0.86       9.25
C       3.33       8.04      12.64
C       5.46       3.61       9.23
C       6.74       3.13       9.51
C       6.97       1.75       9.54
C       5.66       8.62       4.27
C       6.49       9.61       3.74
C       6.85       9.61       2.39
C      12.28       7.59       7.47
C       6.35       8.57       1.55
C       5.57       7.55       2.11
C       5.21       7.58       3.44
C       3.21       6.46      16.07
C       5.26       8.65       5.71
C       3.53       6.72      14.73
C       2.26       7.31      16.74
C       2.91       7.77      14.05
C       1.94       8.58      14.66
C       1.61       8.37      16.00
C      -2.85       7.88       8.83
C       7.80       9.04      10.12
C       0.97       7.89       8.52
C      10.80       8.15      12.15
C       9.19       8.73      10.42
C      -0.80       7.36       6.94
C       3.57       0.40       8.46
C       1.64      15.82      11.50
C       8.36       1.30       9.90
C       7.85      10.59       1.89
C       3.02       3.28       8.80
C      -1.49       7.72       9.26
C      11.52       8.20       9.79
C      -3.59       8.04      11.17
C      -2.27       7.70      11.57
C      -1.23       7.56      10.68
N       2.92      17.73       9.57
N       6.26      -0.52       9.28
N       6.62       8.48       0.18
N       1.95       7.29      18.07
N       5.15      14.07       7.37
N       3.79       5.43      16.74
N       0.66       9.11      16.63
N       9.95       9.13       8.16
N       0.02       7.20      11.13
O       4.40       8.57       9.22
O       6.91       8.75      11.01
O       1.82       7.09       7.97
O       7.48       9.59       8.98
O       1.24       8.95       9.17
O       3.64      -0.23       7.41
O       2.49       0.41       9.27
O       0.88      15.04      12.06
O       1.75      17.13      11.90
O       9.37       1.72       9.36
O       8.36       0.41      10.92
O       2.75       8.99      12.02
O       8.58      10.44       0.92
O       7.94      11.70       2.70
O       2.43       3.86       9.69
O       2.49       3.03       7.57
O       4.42       7.77       6.08
O       5.90       5.80      10.00
O       4.89      11.68       8.52
O       4.45       5.50       8.26
O       3.17      11.40       9.97
O       4.26       7.30      12.17
O       5.78       9.56       6.44
