114

Zn       8.19       8.44       7.51
Zn       7.66       5.64       7.70
H      14.61       8.60       7.56
H       6.93      10.66       8.87
H       9.11       0.91       6.71
H       7.19      13.12       9.13
H       8.93      10.73      11.14
H       8.93      10.56      12.92
H       6.75      12.01      11.32
H       6.82      11.87      13.08
H       9.03      13.15      13.09
H       5.97       0.17      12.37
H       8.92      13.33      11.32
H       1.27       5.56       7.53
H       7.42       3.66       3.85
H       6.38       3.38       2.41
H       5.45       3.57       5.33
H       4.36       3.41       3.95
H       5.38       1.18       3.36
H       4.83       1.15       5.04
H       6.55       1.35       4.68
H      11.18       4.94      14.21
H      10.23       5.10       0.55
H      10.45       3.41       0.05
H       7.66       9.14      14.46
H       8.29       4.29      15.05
H       9.00       3.87      13.49
H      11.67       7.30       1.03
H      11.11       7.51      14.68
H      12.14       8.88      15.16
H       9.49       9.27       0.12
H      10.29       9.34       1.68
H       5.10       5.02      10.48
H       6.63       4.15      10.55
H       3.82       2.97      11.06
H       6.50       5.42       0.80
H       5.30       2.00      11.01
H       6.24       3.25      12.96
H       4.66       2.58      13.38
H       4.82       4.30      13.00
H      11.93       9.45       6.22
H      11.85      11.19       6.59
H      11.60       9.98       3.78
H      11.58      11.71       4.15
H      13.95      11.53       5.07
H      13.87      10.99       3.38
H       8.69       5.20      11.69
H      13.96       9.80       4.69
H       9.41       8.34       3.52
H       5.25       1.15       8.67
H      10.31      12.94       6.13
H       9.19       3.39       6.83
C       8.06       7.27      10.18
C       9.39      11.09       6.75
C       8.35       2.84       7.24
C       7.67      11.22       8.30
C       8.28       1.45       7.17
C       7.82      12.59       8.42
C       7.16       0.79       7.69
C       8.78      13.26       7.64
C       5.38       7.57       7.64
C      10.49       6.50       7.56
C      11.93       6.35       7.55
C       7.87       6.83       5.05
C       3.95       7.75       7.61
C      14.55       6.48       7.53
C       1.33       7.68       7.56
C       2.73       7.77       7.59
C      13.15       6.38       7.54
C       7.95       8.28      13.86
C       7.19       6.02       1.39
C       7.86       8.39      12.47
C       7.10       5.98       2.78
C       8.14       7.26      11.67
C       8.60       5.95      13.70
C       7.92       6.81       3.55
C       8.49       6.06      12.32
C       8.81       7.67       2.90
C       8.28      10.69      12.04
C       7.45      11.96      12.17
C       8.32      13.21      12.24
C       6.40       3.81       3.44
C       5.36       3.14       4.32
C       5.54       1.63       4.35
C       9.02       4.62      14.29
C       8.94       7.71       1.51
C      10.42       4.62      14.93
C       9.96       8.65       0.90
C      11.17       7.94       0.29
C       5.55       4.03      10.35
C       4.90       3.00      11.25
C       5.17       3.30      12.73
C      11.53      10.42       5.88
C      12.00      10.74       4.47
C      13.53      10.77       4.40
C       8.33       7.09      14.49
C       8.11       6.86       0.74
C       6.17       1.57       8.28
C       9.58      12.48       6.79
C       6.32       2.96       8.36
N       7.39       3.58       7.83
N       8.44      10.48       7.48
O       8.45       8.31       9.55
O       6.12       5.22       3.39
O       5.36       3.71       8.93
O      10.09      10.27       5.94
O       7.94       5.72       5.66
O       7.63       6.19       9.65
O       7.79       7.98       5.58
O       6.12       8.58       7.86
O       9.78       5.49       7.86
O       5.76       6.37       7.42
O      10.09       7.67       7.27
O       7.40       9.56      11.91
