114

Zn      10.57      -2.06       4.54
Zn      -6.92       9.90       8.31
Zn      -1.35      -0.88       6.25
Zn       5.12       9.05       6.25
H       6.80      10.01       2.42
H      -4.45       8.34       6.77
H       3.87       7.10       3.96
H       1.81      -3.59       9.48
H       4.10      10.76       1.67
H       6.78       7.40       4.12
H       0.96      -1.76       3.99
H       8.49      -0.23       6.28
H      -2.07       2.34       5.78
H       3.69       6.48       7.98
H      -7.90       7.98      10.79
H       9.61       0.73       2.94
H       8.46      -3.87       8.65
H      -2.86       1.00       8.41
H       4.78       6.05       1.58
H      -0.32       0.83      11.22
H      -0.74      -0.70      11.98
H       2.40       6.36       2.10
H       2.29       4.97       0.24
H      -2.92       3.63      12.49
H      -1.20       3.39      12.13
H      -1.85       2.27      10.22
H       1.49       7.64       1.27
H      -4.51       0.29      12.08
H      -3.69       4.11       4.87
H       8.23       5.83       3.02
H      -4.05       6.09       5.12
H       4.06      -2.81      10.01
H       4.02      -0.60       7.86
H       6.41      -2.97       9.73
H       6.24      -0.55       7.82
H      -8.34       6.25      11.98
H      -3.31      11.69       1.59
H       8.75      10.11       0.69
C       7.51      10.58       3.00
C      -5.39       8.26       6.23
C       1.28      -1.00       7.57
C       3.97       8.12       3.59
C       1.50      -2.78       8.83
C       4.08       9.98       2.42
C       7.45       7.77       4.88
C      -5.25      11.66       3.79
C      -5.68      10.88       2.68
C      -5.74       7.43       5.14
C       2.25      -1.66       8.38
C       3.85       8.61       2.28
C       8.67      -1.19       6.75
C      -2.39      -1.77      10.06
C      -2.71       1.72       5.16
C       4.50       6.98       8.50
C      -8.53       7.74       9.93
C      10.37       0.90       3.69
C       8.66      -3.04       7.97
C      -2.70       0.01       8.83
C       7.98      -1.81       7.81
C      -2.58      -0.36      10.17
C      10.87       2.13       4.19
C       4.98       6.78       9.81
C       4.77       6.80       0.79
C      -1.01       0.35      11.93
C       2.34       6.95       1.17
C      -2.15       2.87      12.31
C       3.63       7.81       1.03
C      -2.46       0.52      11.38
C      -3.49       0.19      12.48
C      -2.52       2.05      11.06
C       9.61       4.21       3.24
C      10.46       3.49       4.05
C       9.11       5.53       3.59
C      -4.98       6.33       4.59
C       4.50      -2.10       9.31
C       3.64      -1.37       8.53
C       5.93      -2.15       9.19
C       6.69      -1.42       8.32
C      -9.32       5.76      12.05
C       4.53       5.87      10.85
C      -4.01      11.25       0.87
C       9.39      10.67       1.38
Br       6.58       7.61       0.94
N       7.17      11.16       4.15
N      -6.46       9.01       6.59
N       0.12      -1.69       7.53
N       4.26       9.12       4.44
N       0.26      -2.78       8.30
N       4.32      10.28       3.71
N       7.04       8.70       5.76
N      -1.02      -2.07       4.65
N       9.65      -2.00       6.31
N      -2.41      -2.15       8.76
N      -2.65       0.39       5.23
N       5.20       7.97       7.91
N      -8.40       8.44       8.80
N      10.96      -0.11       4.33
N       9.64      -3.14       7.06
N      -2.59      -1.07       8.00
N      -1.99      -2.76      11.00
N      -3.89       2.50      10.54
N       9.05       3.65       2.02
N       1.35       0.20       6.85
N       3.25       5.22      10.64
O      -1.51      -3.85      10.55
O      -2.06      -2.54      12.21
O      -4.81       2.60      11.35
O      -3.97       2.76       9.33
O       8.30       4.37       1.33
O       9.36       2.49       1.69
O       2.39       0.87       6.81
O       0.28       0.58       6.23
O       3.03       4.15      11.25
O       2.43       5.74       9.86
