50

Ni       8.40      16.55       5.72
Ni       5.04       3.31       5.72
H       8.87       6.05      10.36
H       5.51      13.81       1.08
H       7.92      13.81      10.36
H       4.56       6.04       1.08
H       1.20      13.81       1.08
H       4.56       6.05      10.36
H       2.15       6.05       1.08
H       5.51      13.81      10.36
H       4.55       4.90       8.34
H       1.19      14.95       3.10
H       5.52      14.95       8.34
H       2.16       4.90       3.10
H       5.52      14.96       3.10
H       8.89       4.91       8.34
H       4.55       4.90       3.10
H       7.91      14.96       8.34
C       5.62       4.81       8.15
C       2.25      15.04       3.29
C       4.46      15.04       8.14
C       1.10       4.81       3.29
C       4.46      15.05       3.29
C       7.83       4.81       8.15
C       5.61       4.81       3.29
C       8.97      15.05       8.15
C       6.72       5.25       8.90
C       3.36      14.61       2.54
C       3.36      14.61       8.90
C       6.72       5.25       2.54
C       6.72       5.95      10.18
C       3.36      13.91       1.26
C       3.35      13.90      10.18
C       6.72       5.95       1.26
C       7.92       6.29      10.83
C       4.56      13.56       0.61
C       8.88      13.56      10.82
C       5.52       6.29       0.61
C       2.16      13.56       0.61
C       5.52       6.29      10.82
C       1.20       6.29       0.61
C       4.56      13.56      10.83
N       6.04       4.17       7.04
N       2.67      15.69       4.40
N       4.04      15.69       7.04
N       7.40       4.17       4.40
N       4.03      15.69       4.40
N       7.40       4.17       7.04
N       6.04       4.17       4.40
N       2.68      15.69       7.04
