189

Zn       1.73      16.68       0.20
Zn      10.44       5.44      18.97
Zn       0.26       8.71       0.00
H      10.07      11.71      18.96
H       2.10      10.41       0.20
H       8.25       6.67       1.31
H       3.92      15.45      17.85
H       3.03       1.55       3.54
H       9.14      20.57      15.63
H       3.33       4.61       7.17
H       8.84      17.51      11.99
H       3.81       3.37       5.05
H       8.36      18.75      14.11
H       4.20       6.58       8.42
H       7.97      15.54      10.75
H       6.06      16.11       2.73
H       6.11       6.00      16.43
H      10.22       9.43      10.79
H       1.95      12.69       8.37
H       9.62       5.59       4.21
H       2.55      16.52      14.95
H       4.92      14.51       4.24
H       7.25       7.61      14.92
H       9.54      13.60       2.67
H       2.63       8.52      16.50
H       2.86       9.16       5.25
H       9.31      12.95      13.91
H       9.64       9.94      15.40
H       2.53      12.17       3.77
H       8.41      11.99       4.16
H       3.76      10.13      15.01
H       8.85       3.75       2.70
H       3.32      18.36      16.47
H       1.97       7.22       4.01
H      10.20      14.89      15.15
H       4.96      13.53       6.49
H       7.21       8.59      12.68
H       5.57      10.14       9.55
H       6.60      11.98       9.61
H      10.25       9.15      13.12
H       1.92      12.97       6.04
H       3.45       2.43       0.70
H       8.72      19.68      18.46
H       4.74      12.55      17.31
H       7.43       9.57       1.85
H       6.50      10.78      17.14
H       5.67      11.34       2.03
H       5.74       8.72       5.54
H       6.43      13.40      13.62
H       2.61       4.35       1.59
H       9.56      17.76      17.57
H       8.38       9.95      17.92
H       3.79      12.16       1.24
H       1.63       8.73       8.57
H      10.54      13.39      10.59
H       3.53      12.50      12.69
H       8.64       9.62       6.48
H       4.76      10.89      11.76
H       7.41      11.23       7.40
H       5.32       0.80       0.66
H       6.85      21.32      18.50
H       6.78      10.43       4.12
H       5.39      11.69      15.05
H       2.95      13.24      14.99
H       9.22       8.88       4.17
H       3.92      11.81       7.92
H       8.25      10.31      11.25
H      10.09       8.17      17.90
H       2.08      13.95       1.26
H       0.97       6.20       1.62
H      11.20      15.91      17.55
C       2.42       2.43       3.70
C       9.75      19.68      15.46
C       3.22       5.61       6.74
C       8.95      16.51      12.42
C       2.85       3.45       4.55
C       9.32      18.67      14.61
C       3.71       6.71       7.45
C       8.46      15.41      11.72
C      10.75      12.03      16.77
C       1.42      10.08       2.40
C       6.57      15.21       3.06
C       5.60       6.91      16.10
C       1.87       9.58      10.53
C      10.30      12.53       8.63
C       0.84       4.71       4.05
C      11.33      17.41      15.11
C       1.20       2.55       3.01
C      10.97      19.56      16.16
C       5.94      14.31       3.91
C       6.23       7.81      15.25
C       8.53      13.79       3.01
C       3.64       8.33      16.15
C       2.96       8.16       5.67
C       9.21      13.95      13.50
C      10.37      10.50      14.79
C       1.80      11.62       4.37
C       2.59       5.77       5.50
C       9.58      16.35      13.66
C       7.89      12.89       3.84
C       4.28       9.23      15.32
C       9.81       3.69       3.22
C       2.36      18.43      15.94
C       2.46       7.07       4.98
C       9.71      15.05      14.18
C       7.87      14.96       2.60
C       4.30       7.16      16.57
C       5.12      12.47       6.26
C       7.05       9.65      12.90
C       3.65       9.43       8.89
C       8.52      12.69      10.27
C       4.52      10.02       9.82
C       7.65      12.10       9.35
C       0.79       1.54       1.98
C      11.38      20.58      17.18
C      10.70      10.06      13.51
C       1.47      12.05       5.65
C       4.41       2.73       0.28
C       7.76      19.39      18.89
C       4.81      11.74      18.04
C       7.36      10.37       1.12
C       5.79      10.76      17.96
C       6.38      11.35       1.20
C       5.57       9.77       5.75
C       6.60      12.35      13.41
C       6.87       8.71      18.90
C       5.30      13.41       0.26
C       2.62       5.09       0.79
C       9.55      17.02      18.37
C       8.13       8.98      18.33
C       4.04      13.14       0.83
C       2.08       4.62       4.71
C      10.09      17.50      14.45
C       6.58      13.12       4.31
C       5.59       9.00      14.86
C       4.74      10.14       6.83
C       7.43      11.98      12.34
C       5.93      12.12       5.17
C       6.24      10.00      13.99
C       2.32       9.18       9.28
C       9.85      12.93       9.89
C       2.82      11.93      13.28
C       9.35      10.19       5.88
C       2.72      10.25      11.44
C       9.45      11.86       7.73
C       4.06      10.44      11.05
C       8.11      11.68       8.11
C       2.26      10.75      12.74
C       9.91      11.37       6.42
C      10.99      11.63      15.35
C       1.18      10.49       3.82
C       5.44       1.80       0.23
C       6.73      20.32      18.93
C       5.83       9.75      18.93
C       6.34      12.37       0.23
C       3.59       8.00       6.91
C       8.58      14.12      12.26
C       6.14      10.74       4.94
C       6.03      11.37      14.22
C       8.56      15.90       1.65
C       3.61       6.22      17.51
C       2.50      12.35      14.56
C       9.67       9.77       4.60
C       4.54      11.51       7.08
C       7.63      10.61      12.09
C       9.10       7.99      18.32
C       3.07      14.13       0.84
C       1.69       6.12       0.81
C      10.48      15.99      18.36
N       4.10       9.13       7.59
N       8.07      12.98      11.57
N       3.90      11.78      19.03
N       8.27      10.34       0.13
N       8.89       6.77      18.85
N       3.28      15.35       0.32
O      10.00      11.30      17.49
O       2.17      10.82       1.68
O       9.79      15.69       1.42
O       2.38       6.43      17.74
O       9.06       1.71       1.43
O       3.11      20.41      17.73
O       8.01       7.41       0.73
O       4.16      14.71      18.43
O       1.63       0.61       1.71
O      10.54      21.51      17.46
O       7.85      16.83       1.13
O       4.32       5.29      18.03
O      11.35      13.09      17.17
O       0.82       9.03       1.99
