49

Al       9.95       4.91       5.30
Al       6.61       4.95       5.34
H       8.24       3.42       4.47
H       4.91       6.37       6.31
H       6.11       4.46       9.35
H      10.40       4.84       9.38
H       2.87       4.99       1.22
H       8.00       8.94       7.47
H       6.53       9.01       6.49
H       3.27       0.86       6.67
H       4.83       0.78       7.50
H       3.17       0.79       4.17
H       4.64       0.91       3.20
H       6.63       8.95       3.99
H       8.19       9.07       3.17
H      10.26       9.07       6.29
H      10.35       8.99       4.53
H       6.91       0.84       4.38
H       6.99       0.92       6.14
H       7.21       5.38       2.31
C       4.93       2.51       5.34
C       4.97       5.12       2.87
C       8.33       7.34       5.30
C       8.26       4.73       7.73
C       5.00       5.19       1.40
C       8.26       4.65       9.23
C       6.23       5.33       0.70
C       7.04       4.52       9.92
C       9.46       4.74       9.92
C       3.80       5.09       0.67
C       7.56       9.38       6.56
C       4.28       0.44       6.61
C       4.98       0.99       5.35
C       4.22       0.46       4.11
C       7.63       9.40       4.05
C       8.34       8.86       5.32
C       9.77       9.42       5.37
C       6.43       0.48       5.30
O       3.78       3.06       5.42
O       6.10       5.23       3.49
O       7.19       6.77       5.42
O       9.38       4.86       7.15
O       9.44       6.74       5.17
O       7.12       4.67       7.16
O       6.03       3.13       5.22
O       3.85       4.95       3.46
O       8.27       4.36       4.70
O       4.93       5.49       5.91
O       7.42       5.44       1.33
