416

Tb      11.76       5.68       6.55
Tb      17.48      17.08      21.35
Tb       9.96      17.13      21.35
Tb       4.24       5.73       6.55
Tb       7.93       6.00       7.45
Tb       6.26      17.40      20.45
Tb      13.79      16.81      20.45
Tb      15.46       5.41       7.45
H      10.94       2.19       3.96
H      18.30      13.60      23.94
H      10.78      20.61      23.94
H       3.42       9.21       3.96
H      10.20       0.48       2.31
H      19.05      11.89      25.59
H      11.52      22.33      25.59
H       2.67      10.92       2.31
H       6.20       0.68       3.92
H       7.99      12.08      23.97
H      15.52      22.13      23.97
H      13.73      10.72       3.92
H       6.97       2.37       5.57
H       7.23      13.77      22.33
H      14.75      20.44      22.33
H      14.49       9.04       5.57
H      14.77      19.69      27.34
H      14.48       8.29       0.56
H       6.95       3.12       0.56
H       7.25      14.52      27.34
H      16.30      18.73      25.62
H      12.94       7.32       2.27
H       5.42       4.08       2.27
H       8.78      15.49      25.62
H      12.97      16.73      23.77
H       1.23       5.33       4.13
H       8.75       6.08       4.13
H      20.50      17.48      23.77
H      11.46      17.65      25.47
H       2.73       6.24       2.43
H      10.26       5.16       2.43
H      18.99      16.57      25.47
H       4.31       1.61       2.46
H       9.89      13.02      25.43
H      17.41      21.19      25.43
H      11.83       9.79       2.46
H       3.66       3.48       3.97
H      10.54      14.88      23.92
H      18.07      19.33      23.92
H      11.18       7.93       3.97
H      15.87       0.91       5.94
H      13.37      12.32      21.95
H       5.85      21.89      21.95
H       8.35      10.49       5.94
H       1.47      21.84       4.43
H      12.72      10.44      23.46
H      20.25       0.97      23.46
H       9.00      12.37       4.43
H      14.87       8.03       9.73
H      14.37      19.44      18.16
H       6.85      14.78      18.16
H       7.35       3.37       9.73
H      15.39      10.00      11.15
H      13.86      21.41      16.75
H       6.33      12.81      16.75
H       7.86       1.40      11.15
H      12.55      12.35       8.90
H      16.69       0.94      19.00
H       9.17      10.46      19.00
H       5.03      21.87       8.90
H      12.05      10.36       7.48
H      17.19      21.76      20.42
H       9.67      12.45      20.42
H       4.53       1.05       7.48
H      15.36      16.77      16.06
H      13.89       5.37      11.83
H       6.36       6.04      11.83
H       7.83      17.44      16.06
H      16.75      17.56      17.92
H      12.49       6.15       9.97
H       4.97       5.25       9.97
H       9.23      16.66      17.92
H       5.06      15.38      16.34
H       9.13       3.98      11.55
H      16.66       7.43      11.56
H      12.59      18.83      16.34
H       3.66      14.57      14.46
H      10.54       3.17      13.44
H      18.06       8.24      13.44
H      11.18      19.64      14.46
H       6.04      11.01      12.16
H       8.16      22.42      15.73
H      15.68      11.80      15.73
H      13.56       0.39      12.16
H       7.02       9.22      10.73
H       7.18      20.62      17.17
H      14.70      13.59      17.17
H      14.54       2.19      10.73
H       3.38       9.04       8.46
H      10.81      20.45      19.44
H      18.34      13.77      19.44
H      10.91       2.36       8.46
H       2.37      10.81       9.89
H      11.82      22.22      18.01
H      19.35      12.00      18.01
H       9.90       0.59       9.89
H       8.58      21.98       1.47
H      20.67      10.57      26.43
H      13.15       0.83      26.43
H       1.05      12.24       1.47
H      11.11      18.99      27.24
H       3.08       7.58       0.65
H      10.61       3.82       0.65
H      18.64      15.23      27.24
H       2.43      21.29       2.29
H      11.76       9.89      25.60
H      19.29       1.52      25.60
H       9.96      12.92       2.29
H      13.40      13.08      11.04
H      15.84       1.67      16.86
H       8.32       9.73      16.86
H       5.88      21.14      11.04
H       4.34      12.39      12.64
H       9.86       0.98      15.25
H      17.38      10.42      15.25
H      11.86      21.83      12.64
H      15.11      15.45      14.20
H      14.14       4.04      13.70
H       6.61       7.36      13.70
H       7.58      18.77      14.20
C       9.42       3.50       5.77
C      19.83      14.90      22.13
C      12.30      19.31      22.13
C       1.90       7.91       5.77
C       9.00       2.40       4.86
C      20.24      13.80      23.03
C      12.72      20.41      23.03
C       1.48       9.01       4.86
C       9.91       1.85       3.95
C      19.34      13.25      23.95
C      11.81      20.96      23.95
C       2.39       9.56       3.95
C       9.49       0.90       3.03
C      19.76      12.30      24.87
C      12.23      21.91      24.87
C       1.97      10.51       3.03
C       8.15       0.48       3.00
C       6.05      11.88      24.90
C      13.57      22.33      24.90
C      15.67      10.93       3.00
C       7.24       1.00       3.94
C       6.96      12.41      23.96
C      14.48      21.81      23.96
C      14.77      10.40       3.94
C       7.68       1.95       4.85
C       6.52      13.35      23.04
C      14.04      20.86      23.04
C      15.20       9.46       4.85
C       6.60      21.81       1.66
C       7.60      10.41      26.23
C      15.12       1.00      26.23
C      14.12      12.40       1.66
C       4.37      21.60       1.87
C       9.83      10.20      26.02
C      17.35       1.21      26.02
C      11.90      12.61       1.87
C       5.49      20.28       0.43
C       8.70       8.87      27.47
C      16.23       2.53      27.47
C      13.02      13.94       0.43
C      13.02      18.74      26.51
C       1.18       7.34       1.38
C       8.70       4.07       1.38
C      20.54      15.47      26.51
C      14.39      19.03      26.57
C      14.85       7.62       1.33
C       7.33       3.78       1.33
C       6.87      15.19      26.57
C      15.24      18.49      25.61
C      14.01       7.09       2.29
C       6.48       4.32       2.29
C       7.71      15.72      25.61
C      14.75      17.68      24.58
C      14.50       6.27       3.32
C       6.97       5.13       3.32
C       7.22      16.54      24.58
C      13.38      17.36      24.56
C       0.81       5.95       3.34
C       8.34       5.45       3.34
C      20.91      16.86      24.56
C      12.53      17.87      25.52
C       1.67       6.47       2.38
C       9.19       4.93       2.38
C      20.05      16.34      25.52
C      15.66      17.26      23.49
C      13.59       5.86       4.40
C       6.06       5.55       4.40
C       8.13      16.95      23.49
C       1.74       3.41       5.93
C      12.46      14.81      21.96
C      19.98      19.40      21.96
C       9.26       8.00       5.93
C       2.92       0.21       3.34
C      11.27      11.61      24.56
C      18.80      22.60      24.56
C      10.45      11.20       3.34
C       3.54       1.46       3.22
C      10.65      12.87      24.67
C      18.18      21.35      24.67
C      11.07       9.94       3.22
C       3.18       2.50       4.07
C      11.02      13.91      23.83
C      18.54      20.31      23.83
C      10.70       8.90       4.07
C       2.19       2.31       5.05
C      12.00      13.71      22.85
C      19.53      20.50      22.85
C       9.72       9.09       5.05
C       1.58       1.05       5.17
C      12.61      12.46      22.72
C      20.14      21.76      22.72
C       9.11      10.35       5.17
C       1.94       0.01       4.33
C      12.25      11.42      23.57
C      19.78      22.80      23.57
C       9.47      11.39       4.33
C      13.08       7.89       7.70
C      16.17      19.30      20.20
C       8.64      14.92      20.20
C       5.55       3.51       7.70
C      13.43       9.07       8.52
C      15.82      20.48      19.38
C       8.29      13.74      19.38
C       5.90       2.33       8.52
C      14.37       8.98       9.55
C      14.88      20.38      18.34
C       7.35      13.83      18.34
C       6.84       2.42       9.55
C      14.65      10.08      10.35
C      14.59      21.49      17.55
C       7.07      12.73      17.55
C       7.13       1.32      10.35
C      13.99      11.30      10.13
C      15.25      22.71      17.77
C       7.73      11.51      17.77
C       6.47       0.10      10.13
C      13.05      11.40       9.08
C      16.19      22.80      18.81
C       8.67      11.41      18.81
C       5.53       0.01       9.08
C      12.78      10.29       8.29
C      16.47      21.70      19.61
C       8.94      12.52      19.61
C       5.25       1.11       8.29
C      15.29      12.79      11.67
C      13.96       1.38      16.23
C       6.43      10.02      16.23
C       7.76      21.43      11.67
C      16.24      14.12      13.22
C      13.01       2.72      14.67
C       5.49       8.69      14.67
C       8.71      20.09      13.22
C      16.94      15.60      15.13
C      12.31       4.20      12.76
C       4.78       7.21      12.76
C       9.41      18.61      15.13
C      16.41      16.48      16.10
C      12.83       5.08      11.79
C       5.31       6.33      11.79
C       8.89      17.73      16.10
C      17.20      16.93      17.16
C      12.05       5.52      10.74
C       4.52       5.88      10.74
C       9.67      17.29      17.16
C      18.54      16.51      17.26
C      10.71       5.11      10.63
C       3.18       6.30      10.63
C      11.01      17.70      17.26
C       4.02      15.69      16.26
C      10.17       4.29      11.64
C      17.70       7.12      11.64
C      11.55      18.52      16.26
C      18.30      15.24      15.21
C      10.95       3.83      12.69
C       3.42       7.57      12.69
C      10.77      18.98      15.21
C      19.40      16.84      18.41
C       9.85       5.43       9.48
C       2.32       5.97       9.48
C      11.87      17.38      18.41
C      17.47      12.56      12.16
C      11.78       1.15      15.74
C       4.25      10.25      15.74
C       9.94      21.65      12.16
C       4.13      11.01      11.13
C      10.06      22.42      16.77
C      17.59      11.80      16.77
C      11.66       0.39      11.13
C       5.45      10.57      11.35
C       8.74      21.98      16.55
C      16.27      12.24      16.55
C      12.98       0.83      11.35
C       6.00       9.58      10.56
C       8.19      20.98      17.34
C      15.72      13.23      17.34
C      13.53       1.83      10.56
C       5.25       9.01       9.52
C       8.94      20.41      18.38
C      16.47      13.80      18.38
C      12.78       2.40       9.52
C       3.95       9.48       9.28
C      10.24      20.88      18.62
C      17.77      13.33      18.62
C      11.48       1.93       9.28
C       3.39      10.47      10.07
C      10.81      21.87      17.83
C      18.33      12.34      17.83
C      10.91       0.94      10.07
C       5.81       7.89       8.72
C       8.39      19.30      19.18
C      15.91      14.92      19.18
C      13.33       3.51       8.72
N       7.81      22.35       2.01
N       6.39      10.95      25.88
N      13.92       0.46      25.88
N      15.33      11.86       2.01
N       5.48      22.26       2.24
N       8.71      10.86      25.65
N      16.24       0.55      25.65
N      13.01      11.95       2.24
N       4.30      20.60       0.99
N       9.90       9.19      26.91
N      17.42       2.21      26.91
N      11.82      13.62       0.99
N       6.67      20.84       0.73
N       7.52       9.43      27.17
N      15.05       1.97      27.17
N      14.20      13.38       0.73
N      12.08      19.29      27.39
N       2.12       7.88       0.51
N       9.65       3.52       0.51
N      19.60      14.93      27.39
N       3.19      21.95       2.47
N      11.01      10.55      25.43
N      18.54       0.86      25.43
N      10.71      12.26       2.47
N      14.18      12.42      10.95
N      15.07       1.02      16.95
N       7.54      10.39      16.95
N       6.65      21.79      10.95
N      15.12      13.81      12.53
N      14.13       2.40      15.37
N       6.60       9.00      15.37
N       7.59      20.41      12.53
N      17.43      13.54      13.08
N      11.81       2.14      14.82
N       4.29       9.26      14.82
N       9.91      20.67      13.08
N      16.43      12.12      11.44
N      12.81       0.71      16.46
N       5.29      10.69      16.46
N       8.91      22.10      11.44
N       3.66      12.00      12.00
N      10.54       0.60      15.90
N      18.06      10.81      15.90
N      11.18      22.21      12.00
N      16.07      15.12      14.15
N      13.18       3.71      13.74
N       5.65       7.69      13.74
N       8.54      19.09      14.15
O       8.57       3.97       6.60
O       5.63      15.38      21.30
O      13.15      18.83      21.30
O      16.09       7.43       6.60
O      15.20      16.81      22.36
O      14.05       5.41       5.53
O       6.52       6.00       5.53
O       7.67      17.40      22.36
O      13.56       6.72       8.00
O      15.69      18.13      19.89
O       8.17      16.09      19.89
O       6.03       4.68       8.00
O       6.95       7.42       9.02
O       7.25      18.82      18.88
O      14.78      15.39      18.88
O      14.47       3.99       9.02
O       5.58      16.55      18.36
O       8.61       5.15       9.53
O      16.14       6.26       9.53
O      13.11      17.66      18.36
O      15.85       3.19       6.76
O      13.39      14.59      21.13
O       5.87      19.62      21.13
O       8.33       8.21       6.76
O       2.23       4.60       5.83
O      11.96      16.01      22.06
O      19.49      18.21      22.06
O       9.76       6.80       5.83
O      10.61       3.94       5.66
O      18.64      15.34      22.24
O      11.11      18.87      22.24
O       3.09       7.47       5.66
O      18.93      17.39      19.50
O      10.32       5.99       8.40
O       2.79       5.42       8.40
O      11.40      16.82      19.50
O      12.26       8.00       6.73
O      16.99      19.41      21.16
O       9.46      14.81      21.16
O       4.73       3.40       6.73
O       5.10       7.43       7.75
O       9.10      18.83      20.15
O      16.62      15.38      20.15
O      12.62       3.97       7.75
O      16.92      17.39      23.63
O      12.33       5.99       4.26
O       4.80       5.42       4.26
O       9.39      16.82      23.63
