98

Al       0.01      28.97      25.09
Al       0.01      14.49      16.73
H       3.41      16.22      13.16
H       3.65      16.28      10.68
H       1.24      12.72      10.41
H       1.24      16.25       6.32
H       3.41      12.76       3.56
H       3.65      12.69       6.05
H       3.41      16.71      20.01
H       3.65      18.82      21.31
H       1.24      20.84      18.36
H       1.24      22.62      23.46
H       3.41      26.75      21.81
H       3.65      24.64      20.51
H       3.41      10.54      17.01
H       3.65      37.32      18.19
H       1.24      38.87      21.42
H       1.24      33.56      20.40
H       3.41      32.92      24.81
H       3.65      35.11      23.62
H       0.48      12.62      13.93
H       0.14      11.97      12.37
H       0.48      16.36       2.80
H       0.14      17.00       4.36
H       0.48      17.84      16.51
H       0.14      19.52      16.73
H       0.48      11.13       0.22
H       0.14      23.94      25.09
H       0.48      13.00      19.75
H       0.14      40.94      21.08
H       0.48      30.46      22.07
H       0.14      31.49      20.73
C       2.05      30.79      24.10
C       2.05      14.43       2.07
C       2.05      27.21      24.01
C       2.05      14.54      14.66
C       2.05      16.25      17.80
C       2.05      12.67      17.72
C       2.16      14.48      13.19
C       2.92      15.47      12.54
C       3.06      15.51      11.17
C       2.45      14.49      10.39
C       1.72      13.48      11.02
C       1.52      13.47      12.41
C       2.55      14.50       8.97
C       2.55      14.48       7.75
C       2.45      14.48       6.34
C       1.72      15.49       5.71
C       1.52      15.50       4.31
C       2.15      14.49       3.53
C       2.92      13.50       4.18
C       3.06      13.46       5.56
C       2.16      17.55      18.49
C       2.92      17.62      19.67
C       3.06      18.79      20.39
C       2.45      19.97      19.90
C       1.72      19.93      18.71
C       1.52      18.73      18.00
C       2.55      21.20      20.61
C       2.55      22.26      21.21
C       2.45      23.49      21.91
C       1.72      23.53      23.10
C       1.52      24.73      23.81
C       2.15      25.91      23.33
C       2.92      25.84      22.15
C       3.06      24.67      21.42
C       2.16      11.43      18.50
C       2.92      39.34      17.97
C       3.06      38.13      18.62
C       2.45      37.97      19.89
C       1.72      39.02      20.45
C       1.52      40.23      19.76
C       2.55      36.74      20.60
C       2.55      35.69      21.22
C       2.45      34.47      21.93
C       1.72      33.41      21.37
C       1.52      32.20      22.05
C       2.15      32.03      23.32
C       2.92      33.09      23.85
C       3.06      34.30      23.20
N       0.80      12.45      12.98
N       0.79      16.52       3.75
N       0.80      18.75      16.84
N       0.79      24.71      24.98
N       0.80      12.26      20.37
N       0.80      31.20      21.45
O       1.07      27.40      24.83
O       1.07      29.99      23.86
O       1.07      15.05       1.50
O       2.94      28.10      23.77
O       2.94      13.78       1.42
O       2.94      30.55      24.99
O       1.07      13.47      17.96
O       1.07      13.93      15.23
O       1.07      16.06      16.99
O       2.94      12.91      16.83
O       2.94      15.36      18.05
O       2.94      15.19      15.31
