276

Hf      15.49       2.17      24.64
Hf       7.41      12.84       1.17
Hf      20.34      15.59      25.49
Hf       9.96      15.09       0.33
Hf      15.27       0.43       2.45
Hf       7.66      14.58      23.41
Hf       7.49      12.85      11.87
Hf      15.45       1.56      13.93
Hf      10.03      15.03      12.96
Hf      20.32      15.09      12.80
Hf       7.35      13.97      15.19
Hf       0.15       0.46      10.66
H       1.87       1.99       1.23
H      20.81      14.04       2.83
H       9.60      13.08      24.83
H      13.67       0.78      22.89
H      13.07       1.94       3.19
H      18.66      15.39      23.40
H      21.10      13.01      22.29
H       1.74       0.55       4.30
H       4.27       0.96       1.64
H      11.91      15.57      23.98
H      10.44      14.47      23.20
H      21.84      15.51       4.90
H       8.07      11.40       3.35
H      14.96       2.86      21.96
H       7.15      15.42      20.90
H       2.70       0.64       2.94
H       6.49      11.30       3.18
H      18.37      15.02       1.84
H      12.39       0.64       2.48
H       9.64      14.71      21.75
H      20.27      14.30      22.91
H      15.76       1.43      21.93
H      20.84      12.48      13.78
H       9.26      15.97      15.75
H      13.54       1.99      11.91
H       9.50      14.20      10.29
H       9.39      12.41      16.20
H      11.94      15.23      11.05
H       2.23       1.99       9.78
H      20.74      13.91      16.86
H      18.40      13.71      14.02
H      11.18       0.85      11.38
H      13.71       0.40       8.82
H       7.99      14.59      17.68
H      14.66       3.03      16.04
H       8.22      12.16       9.22
H       8.22      15.32       8.16
H      19.90      13.88      15.42
H      16.26       3.12      15.96
H      11.73      13.50      14.22
H      10.20      13.66      15.49
H      12.78       0.64      10.18
H       2.97       0.66      10.41
H       7.48      13.62       9.14
H      14.45      11.61       8.93
H      12.98       8.11      10.96
H      11.00       9.39      11.72
H      12.57      12.93       9.83
H      15.28       8.23      12.06
H      15.46       6.73       8.03
H      15.64       4.41       8.90
H      15.44       5.89      12.93
H      17.87       8.52       9.18
H      15.29      11.23      11.32
H      17.25      12.52      12.04
H      19.85       9.81       9.96
H      13.28       8.18       5.35
H      16.98      10.36       5.29
H      17.02      10.36       7.73
H      13.32       8.17       7.80
H      19.72       9.75       2.89
H      17.06      12.33       0.73
H      15.12      11.13       1.65
H      17.77       8.54       3.84
H      12.74       8.17       2.32
H      14.49      11.65       4.14
H      12.58      13.03       3.34
H      10.74       9.51       1.69
H      15.38       4.40       4.20
H      14.99       5.86       0.18
H      14.98       8.20       1.03
H      15.38       6.73       5.05
H       8.84       6.39      14.01
H       6.55       7.54      17.48
H       6.51       9.88      16.66
H       8.67       8.71      13.15
H       7.37       2.65      16.35
H       5.32       6.30      15.32
H       3.37       4.97      14.54
H       5.47       1.33      15.45
H       8.07       4.17      13.93
H      10.19       4.76      17.63
H      12.13       3.55      16.71
H       9.96       2.85      13.07
H       6.03       4.38      20.65
H       9.45       6.99      20.41
H       9.41       6.81      17.97
H       6.06       4.11      18.23
H       7.47       8.26      20.76
H       7.83       6.81      24.80
H       7.64       8.55       0.14
H       7.39      10.58      21.60
H       7.73       3.87      24.19
H       5.10       6.43      21.94
H       3.14       5.17      22.81
H       5.79       2.62      25.02
H       8.45       3.36      21.71
H      10.10       6.87      23.58
H      12.10       5.55      24.24
H      10.35       2.02      22.52
C       7.77       5.90      22.26
C       7.74       5.34      16.36
C      15.10       9.11       3.58
C      15.21       9.10       9.50
C      15.15       3.58       1.65
C       3.22       2.90      24.38
C      12.41       2.82      24.03
C      19.64      12.03       1.33
C       7.54      11.42      24.17
C      10.49      12.23       1.87
C       7.55      10.85      14.38
C      19.80      12.17      11.42
C      10.61      12.11      11.48
C       3.21       2.24      14.36
C      15.60       3.61      11.47
C      12.28       2.26      14.29
C      13.71      11.13       9.57
C      13.89       9.78       9.94
C      12.89       9.16      10.69
C      11.77       9.89      11.13
C      11.67      11.26      10.87
C      12.65      11.87      10.06
C      15.34       7.39      11.37
C      15.31       7.64       9.98
C      15.45       6.56       9.11
C      15.56       5.26       9.59
C      15.54       5.01      10.97
C      15.44       6.09      11.85
C      17.73       9.40       9.80
C      16.42       9.83      10.12
C      16.28      10.91      10.99
C      17.38      11.63      11.42
C      18.67      11.27      11.02
C      18.84      10.12      10.25
C      14.12       8.63       5.87
C      15.17       9.20       5.12
C      16.18       9.84       5.83
C      16.21       9.84       7.23
C      15.22       9.19       7.96
C      14.15       8.63       7.25
C      18.70      10.06       2.64
C      18.51      11.16       1.79
C      17.21      11.51       1.42
C      16.12      10.83       1.95
C      16.29       9.80       2.89
C      17.61       9.39       3.17
C      12.70       9.23       2.58
C      13.78       9.83       3.23
C      13.68      11.19       3.58
C      12.61      11.96       3.16
C      11.55      11.36       2.45
C      11.58       9.98       2.21
C      15.27       5.24       3.51
C      15.15       4.99       2.14
C      15.06       6.06       1.25
C      15.04       7.37       1.73
C      15.12       7.64       3.11
C      15.27       6.56       3.98
C       8.31       7.14      14.59
C       7.71       6.79      15.81
C       7.04       7.79      16.53
C       7.00       9.10      16.08
C       7.60       9.44      14.86
C       8.23       8.44      14.11
C       6.50       3.17      15.94
C       6.49       4.57      15.88
C       5.35       5.21      15.38
C       4.25       4.47      14.93
C       4.30       3.07      14.94
C       5.44       2.42      15.45
C       8.96       4.05      14.54
C       8.99       4.59      15.84
C      10.15       4.39      16.61
C      11.24       3.70      16.09
C      11.18       3.13      14.82
C      10.03       3.31      14.05
C       6.79       4.92      20.08
C       7.71       5.74      20.73
C       8.68       6.37      19.94
C       8.68       6.24      18.55
C       7.74       5.42      17.90
C       6.81       4.76      18.69
C       7.55       8.44      21.83
C       7.71       7.36      22.71
C       7.75       7.64      24.09
C       7.68       8.94      24.57
C       7.57      10.02      23.67
C       7.49       9.75      22.30
C       6.74       4.16      23.86
C       6.57       5.20      22.93
C       5.26       5.59      22.61
C       4.15       4.89      23.10
C       4.34       3.79      23.94
C       5.64       3.46      24.35
C       9.23       3.84      22.29
C       9.10       5.20      22.65
C      10.16       5.81      23.32
C      11.28       5.07      23.71
C      11.34       3.70      23.46
C      10.31       3.09      22.73
O      15.71       2.39      22.36
O      15.24       3.39       0.39
O      13.63       3.22      23.98
O       3.60       1.79      24.89
O      12.00       1.72      24.52
O       2.02       3.28      24.23
O      15.07       2.65       2.53
O      14.27       0.70       0.59
O       1.33       1.24       0.93
O      14.20       0.56      23.67
O       8.61      16.17      24.32
O      11.27      14.91      24.30
O      13.11       0.97       3.16
O       8.41      14.54       1.66
O      21.39      14.31       2.10
O      21.87      14.22      25.11
O       8.99      13.80      25.06
O      18.94      15.69       1.44
O      19.30      13.12       0.77
O      20.84      11.67       1.57
O       7.84      15.65      21.55
O       7.55      11.60      25.43
O      19.30      14.80      23.82
O      21.12      13.99      22.32
O       9.67      14.13      22.53
O       7.54      12.35      23.29
O       7.24      11.92       3.33
O       3.72       0.20       1.88
O       9.28      11.79       1.87
O      10.88      13.33       1.39
O       1.87       1.00       3.44
O      22.67      15.59       4.41
O       7.46      12.66       9.57
O       7.58      11.03      13.12
O       9.38      11.77      11.32
O      19.43      13.30      11.87
O      11.02      13.15      12.09
O       5.62      11.77      11.30
O       7.48      11.76      15.28
O       8.51      13.69      13.42
O      21.43      13.21      13.54
O       8.93      14.42      11.04
O      21.86      14.58      11.44
O      19.23      15.86      11.15
O       9.40      13.38      16.12
O      21.73      15.59      14.30
O       8.74      15.73      14.97
O       1.17       0.75      12.47
O      14.11       1.26      12.18
O      11.16      14.22      14.53
O       3.56       1.13      13.86
O       2.00       2.67      14.44
O       7.52      15.10       8.79
O      15.49       3.43      12.73
O      11.23      15.78      11.40
O       2.19       1.02       9.77
O      13.62       0.98       9.61
O      15.73       2.68      10.59
O      15.50       2.52      16.06
O      19.02      14.41      14.29
O      13.49       2.57      14.57
O      11.91       1.28      13.59
O      20.66      13.46      15.99
O       7.19      14.53      17.14
