102

Zn       2.73      11.75       7.91
Zn      12.69       4.13       8.06
Zn      -4.07       3.12       6.09
Zn       7.46       9.75       0.00
Zn       1.16      12.95       6.24
Zn       5.89       7.70       0.00
H      -1.04       9.31       5.00
H       8.83       4.89       1.76
H      10.94      -3.05       7.24
H       1.07       1.37      10.47
H       7.54      -0.45       6.92
H       9.66       8.63       3.68
H      -0.21       8.67       9.16
H      -2.33      -0.41      12.39
H      -2.21       7.93       3.75
H       9.85       3.01       2.24
H      13.02      -2.37       7.11
H       0.97       2.55       8.62
H       7.65       1.74       7.04
H      10.82       8.84       5.53
H      -1.24       7.19      10.41
H      -4.41       0.08      11.92
C       0.38      10.31       7.08
C       5.35       9.73       1.97
C       3.26      11.34       5.10
C       3.26      -2.49      12.18
C       5.35      -4.10       9.05
C       4.62      -3.53      10.15
C       4.62      10.30       3.07
C       4.00      10.77       4.00
C       8.23       7.53       1.65
C       4.00      -3.06      11.08
C      -1.19       8.73       5.91
C       9.34       5.46       2.54
C      10.52      -2.04       7.17
C      -0.01       1.23      10.54
C       8.62      -0.59       6.99
C       8.23      -3.07       7.08
C       9.80       7.55       3.61
C      -0.73       8.38       8.24
C      -1.91       0.24      11.62
C       0.38      -0.29      12.50
C      -2.04       7.62       5.90
C      10.19       4.80       3.43
C      11.39      -0.94       7.17
C      -0.85       1.89       9.63
C       9.46       0.53       6.99
C      10.66       6.92       4.52
C      -1.58       7.27       8.25
C      -2.77       0.88      10.72
C      -2.25       6.87       7.08
C      10.87       5.52       4.44
C      10.86       0.37       7.08
C      -2.25       1.72       9.71
C      -3.17       2.42       8.73
C      -3.17       5.66       7.08
C      11.79       4.82       5.42
C      11.78       1.58       7.08
C      -0.52       9.12       7.08
C       9.14       6.84       2.61
C       9.14      -1.88       7.08
C      -0.52       0.40      11.54
C      -2.70       7.37       4.59
C      10.26       3.32       3.23
C      12.83      -1.29       7.31
C      -0.13       2.76       8.66
C       8.75       1.83       6.85
C      11.32       7.84       5.49
C      -1.65       6.57       9.57
C      -4.21       0.56      10.92
O       1.27      10.36       7.99
O       8.42       8.79       1.48
O       7.07      -2.91       6.57
O      -0.07      -1.34      13.08
O       8.69      -4.15       7.59
O       7.34       6.82       1.08
O       0.20      11.18       6.16
O       1.54       0.21      12.67
O       6.47      -4.65       9.34
O       6.18      10.51       1.39
O       4.82      -3.99       7.90
O       5.11       8.51       1.69
O       3.51      10.85       6.26
O       2.15      -3.05      12.46
O       2.44      12.27       4.82
O       3.80      -1.49      12.77
O      -3.03       2.11       7.51
O      -2.83       4.70       6.32
O      12.80       4.24       4.92
O      12.60       1.65       6.11
O      -3.99       3.26       9.24
O      11.65       2.39       8.04
O      11.45       4.87       6.64
O      -4.19       5.74       7.83
O      -3.68       6.68       4.38
O      10.67       2.50       4.03
O      13.73      -0.54       7.63
O      -0.62       3.65       7.98
O       9.23       2.90       6.52
O      12.30       7.60       6.17
O      -2.05       5.44       9.77
O      -5.12       0.74      10.13
