115

Zn       6.86       6.78       8.00
Zn       4.10       7.03       7.94
H       4.02       5.14      15.02
H       7.91       8.17       2.51
H       9.52       6.59       2.83
H       9.12       5.78       1.31
H       8.00       5.69       2.70
H      10.00       7.48       0.07
H       9.96       6.38      14.68
H       9.35       8.01      14.38
H       7.77       5.57      15.38
H       7.67       6.31      13.80
H       3.50      12.12       7.57
H       7.47       0.54       8.10
H       1.22      12.69       7.46
H       2.89       0.11       6.20
H       2.66       0.69       7.87
H      10.61       7.21       6.07
H      -0.72       7.80       4.16
H       0.15       6.34       4.72
H       0.76       7.96       5.14
H       0.35       6.40       9.88
H      11.66       5.84      11.79
H      10.17       5.77      10.83
H       6.53       8.66       0.99
H      10.87       7.36      11.26
H       2.36       8.39       2.44
H       1.73       8.38       0.79
H       1.09       7.22       1.98
H       2.70       6.00       0.53
H       3.33       6.14       2.16
H       4.90       9.50      13.10
H       3.15       9.80      13.14
H       4.27      10.96      13.87
H       3.08       9.53      15.58
H       4.41       8.37       1.25
H       4.83       9.56      15.70
H       2.97       5.43      13.18
H       2.05       5.17      14.68
H       1.30       5.99      13.31
H       1.84       7.75      14.84
H       2.80       7.85      13.39
H       5.84       2.40       0.25
H       6.81       2.81       1.69
H       5.22       2.05       1.87
H       5.01       4.42       2.43
H       6.98       5.05       0.81
H       4.11       4.11       0.95
H       4.17       2.79      14.36
H       4.24       3.72      12.85
H       5.42       2.43      13.14
H       6.39       4.72      13.48
H       6.53       3.72      14.91
H       7.20       8.68      13.75
H       7.36      10.40       0.16
H       7.78      10.62      14.68
H       8.40       9.55      15.97
C       5.76       9.48       7.95
C       5.37       0.27       7.79
C       5.61      13.50       7.96
C       5.59       6.84       5.37
C       5.84      12.13       7.97
C       5.13       1.66       7.82
C       5.85      10.91       7.94
C      11.40       6.61       8.54
C      -0.45       7.06       7.43
C       0.94       7.20       7.61
C      10.01       6.51       8.35
C       6.62       7.45      15.28
C       5.10       4.32       7.92
C       5.46       6.88      10.57
C       6.91       7.64       0.84
C       4.39       7.39       0.75
C       3.96       7.63      15.17
C       5.41       6.89      12.01
C       5.70       6.71       1.27
C       7.50       9.85      15.41
C       8.69       6.34       2.14
C       7.81       6.53      14.87
C       5.26       6.85      14.67
C       9.22       7.12      15.01
C       1.91      13.52       7.27
C      -0.15       7.36       4.99
C      11.11       6.32      10.97
C       3.09       6.72       1.26
C       2.01       7.73       1.63
C       4.01       9.19      15.08
C       4.08       9.88      13.71
C       2.69       7.28      14.32
C       2.25       5.88      13.87
C       5.09       5.34      15.13
C       5.13       4.16       1.36
C       5.79       2.78       1.28
C       5.80       4.25      14.28
C       4.86       3.25      13.63
C       5.92       5.29       0.67
C       5.33       6.90      13.23
C       5.65       6.71       2.72
C       5.61       6.78       3.93
C       5.06       2.88       7.86
N       8.87       6.47       8.11
N       2.08       7.28       7.84
N       6.83       8.78      14.69
N       8.11       7.61       1.69
N       3.25      13.11       7.63
N      11.60       7.41       6.20
N      -0.65       6.24       9.76
O       6.83       8.81       8.13
O       4.58       9.00       7.79
O       6.73       6.92       5.95
O       4.45       6.81       5.93
O       6.27       4.82       7.84
O       4.00       4.95       8.05
O       6.60       6.67      10.04
O       4.35       7.08       9.97
