178

Nd       6.71       3.87       4.89
Nd      13.42       7.75       2.48
Nd      13.42       7.75       9.84
Nd       6.71       3.87      12.25
Cu      13.42      11.62       7.36
Cu      10.06       5.81       7.36
Cu       3.35       5.81       7.36
Cu      10.06       5.81      14.73
Cu       6.71       0.00       0.00
Cu       3.35       5.81      14.73
H      11.30      11.16       8.57
H       3.19       1.59       7.76
H       3.67       0.32       6.60
H       4.75       0.93      10.34
H       4.84       2.33       9.30
H      11.51       4.20       8.57
H      10.44       1.97       7.76
H      11.30       3.01       6.60
H      10.24       3.65      10.34
H       8.97       3.03       9.30
H      17.44       7.87       8.57
H       6.49       8.06       7.76
H       5.15       8.28       6.60
H       5.13       7.04      10.34
H       6.31       6.26       9.30
H      10.73       3.75      13.53
H      13.20       3.56      14.33
H      11.86       3.34       0.76
H      11.84       4.58      11.75
H      13.01       5.36      12.79
H       4.59       0.45      13.53
H       9.90      10.03      14.33
H      10.37      11.30       0.76
H      11.46      10.69      11.75
H      11.55       9.29      12.79
H       4.81       7.42      13.53
H      17.15       9.65      14.33
H      18.01       8.60       0.76
H      16.94       7.97      11.75
H      15.68       8.59      12.79
H       8.83       0.45       6.16
H      16.93      10.03       6.97
H      16.46      11.30       8.13
H      15.37      10.69       4.39
H      15.28       9.29       5.43
H       8.61       7.42       6.16
H       9.68       9.65       6.97
H       8.82       8.60       8.13
H       9.89       7.97       4.39
H      11.15       8.59       5.43
H       2.69       3.75       6.16
H      13.63       3.56       6.97
H      14.97       3.34       8.13
H      14.99       4.58       4.39
H      13.82       5.36       5.43
H       9.40       7.87       1.20
H       6.92       8.06       0.40
H       8.26       8.28      13.97
H       8.28       7.04       2.98
H       7.11       6.26       1.94
H      15.53      11.16       1.20
H      10.23       1.59       0.40
H       9.75       0.32      13.97
H       8.66       0.93       2.98
H       8.57       2.33       1.94
H      15.32       4.20       1.20
H       2.97       1.97       0.40
H       2.11       3.01      13.97
H       3.18       3.65       2.98
H       4.44       3.03       1.94
C       4.78       2.12       6.40
C       4.05       1.10       7.28
C       5.24       1.32       9.44
C       6.74       1.44       9.71
C       9.19       3.08       6.40
C      10.44       2.96       7.28
C       9.66       3.88       9.44
C       8.80       5.11       9.71
C       6.15       6.42       6.40
C       5.63       7.56       7.28
C       5.23       6.42       9.44
C       4.59       5.06       9.71
C      12.86       5.20       0.96
C      12.34       4.06       0.09
C      11.93       5.20      12.66
C      11.30       6.55      12.39
C      11.49       9.50       0.96
C      10.76      10.52       0.09
C      11.95      10.30      12.66
C      13.44      10.18      12.39
C      15.90       8.54       0.96
C      17.15       8.66       0.09
C      16.36       7.74      12.66
C      15.51       6.51      12.39
C      15.35       9.50       8.33
C      16.07      10.52       7.45
C      14.88      10.30       5.29
C      13.39      10.18       5.02
C      10.93       8.54       8.33
C       9.68       8.66       7.45
C      10.47       7.74       5.29
C      11.32       6.51       5.02
C      13.97       5.20       8.33
C      14.49       4.06       7.45
C      14.90       5.20       5.29
C      15.53       6.55       5.02
C       7.26       6.42      13.76
C       7.78       7.56      14.64
C       8.19       6.42       2.07
C       8.83       5.06       2.34
C       8.64       2.12      13.76
C       9.37       1.10      14.64
C       8.17       1.32       2.07
C       6.68       1.44       2.34
C       4.22       3.08      13.76
C       2.98       2.96      14.64
C       3.76       3.88       2.07
C       4.62       5.11       2.34
N       4.94       0.47       8.26
N      10.53       4.04       8.26
N       4.65       7.10       8.26
N      11.35       4.52      13.83
N      11.65      11.15      13.83
N      17.24       7.57      13.83
N      15.18      11.15       6.47
N       9.59       7.57       6.47
N      15.48       4.52       6.47
N       8.77       7.10       0.90
N       8.47       0.47       0.90
N       2.88       4.04       0.90
O       6.05       2.18       6.52
O       4.12       2.83       5.59
O       7.56       0.89       8.90
O       7.11       2.10      10.72
O       8.50       4.15       6.52
O       8.91       2.16       5.59
O       8.86       6.10       8.90
O       8.04       5.11      10.72
O       5.57       5.29       6.52
O       7.09       6.64       5.59
O       3.70       4.63       8.90
O       4.97       4.41      10.72
O      12.28       6.33       0.85
O      13.80       4.98       1.78
O      10.41       6.99      13.19
O      11.68       7.21      11.37
O      12.76       9.43       0.85
O      10.83       8.79       1.78
O      14.27      10.73      13.19
O      13.82       9.52      11.37
O      15.21       7.47       0.85
O      15.62       9.46       1.78
O      15.57       5.52      13.19
O      14.75       6.51      11.37
O      14.07       9.43       8.21
O      16.00       8.79       9.14
O      12.56      10.73       5.83
O      13.02       9.52       4.01
O      11.62       7.47       8.21
O      11.22       9.46       9.14
O      11.26       5.52       5.83
O      12.08       6.51       4.01
O      14.55       6.33       8.21
O      13.03       4.98       9.14
O      16.42       6.99       5.83
O      15.15       7.21       4.01
O       7.84       5.29      13.88
O       6.32       6.64      12.95
O       9.71       4.63       1.54
O       8.44       4.41       3.35
O       7.37       2.18      13.88
O       9.29       2.83      12.95
O       5.86       0.89       1.54
O       6.31       2.10       3.35
O       4.92       4.15      13.88
O       4.51       2.16      12.95
O       4.55       6.10       1.54
O       5.37       5.11       3.35
