244

Zn       7.48       8.99      15.53
Zn      26.98      10.77      18.18
Zn       8.91      11.88      15.57
Zn      25.47      11.80      15.55
Zn      18.27       7.32       8.83
Zn      16.82       4.47       8.65
Zn      18.63       5.51       6.19
Zn      20.04       4.61       8.84
Zn      16.11      16.31      22.31
Zn      17.63      15.42      24.95
Zn      15.79      18.07      24.96
Zn      14.39      15.25      24.84
Zn      17.54       5.03      31.85
Zn      14.36       4.89      31.67
Zn      24.69      19.89      31.70
Zn      18.36      17.69       1.96
H      23.06       5.94      11.36
H      20.67       9.51      11.44
H      24.72       7.04      12.89
H      11.30      13.42      22.63
H      13.74      14.77      19.35
H       9.68      12.44      20.98
H      12.28       1.47       4.97
H      14.40       2.97       1.54
H      14.00       2.51       6.46
H      22.15      17.66      29.14
H      11.40       3.68      29.08
H      20.42      16.69      27.60
H      24.00      11.82      12.99
H      10.45      14.20      16.59
H      17.92       3.71       3.96
H      16.51      19.46      27.47
H      13.50      11.18      13.02
H      12.27       5.11      11.46
H      23.77      12.33      22.20
H      19.31      14.69      18.30
H       7.26       7.22      22.20
H      16.16      19.87      18.36
H      24.01      15.96      12.44
H      10.36      18.05      11.76
H      18.53       9.00       2.13
H      18.27      14.09       5.97
H       4.96       2.22       7.15
H       3.65       3.13       0.98
H      19.02      11.15      28.00
H      13.00       9.17      28.68
H      29.44      15.95      27.66
H      22.13       4.28      29.14
C       7.38       7.83      18.24
C       9.73      12.45      18.38
C      10.05       9.54      14.21
C      26.98      13.93      14.19
C      24.72       9.45      13.89
C      24.40      12.17      18.24
C      15.69       6.75      10.13
C      16.15       3.87       5.85
C      18.39       8.43       6.10
C      21.21       4.14       6.17
C      20.78       7.02      10.38
C      18.42       2.43      10.03
C      18.71      14.92      22.26
C      18.28      17.78      26.59
C      16.04      19.26      22.32
C      13.21      17.56      26.26
C      13.60      14.75      22.04
C      16.08      13.32      26.32
C      15.94       7.03      30.40
C      22.21      20.19      30.14
C      27.30      20.42      30.42
C      18.46      14.73       2.01
C      12.22       1.53       2.25
C       7.10       1.32       1.97
C      23.64       8.88      13.01
C      21.77       7.66      11.30
C      22.48       9.58      12.60
C      22.91       6.96      11.71
C      21.56       8.97      11.75
C      23.83       7.57      12.56
C      10.78      13.06      19.26
C      12.61      14.16      21.09
C      11.95      13.72      18.80
C      11.47      13.50      21.55
C      12.85      14.26      19.71
C      10.57      12.96      20.64
C      12.33       9.66      13.01
C      13.42       6.63      11.35
C      11.15       9.02      13.41
C      14.59       7.27      10.93
C      12.60       7.51      12.11
C      13.15       8.79      12.26
C      23.16      12.72      20.43
C      19.95      14.35      20.07
C      23.30      12.69      19.04
C      19.80      14.39      21.46
C      21.17      13.73      19.70
C      21.93      13.33      20.80
C       7.34       6.49      20.44
C       7.47       2.89      20.13
C       7.39       6.62      19.05
C       7.42       2.76      21.52
C       7.44       4.25      19.74
C       7.37       5.12      20.83
C      25.89      15.80      12.81
C      28.14      18.26      11.40
C      26.97      15.13      13.38
C      27.06      18.93      10.83
C      27.71      17.11      12.11
C      26.32      16.94      12.08
C      15.17       3.31       4.85
C      13.23       2.15       3.16
C      15.27       3.44       3.45
C      13.12       2.02       4.55
C      14.31       2.86       2.62
C      14.08       2.60       5.38
C      18.48       9.77       3.89
C      18.38      13.37       4.21
C      18.41       9.64       5.28
C      18.45      13.51       2.82
C      18.39      12.01       4.59
C      18.47      11.13       3.50
C       3.81       2.91       5.79
C       4.83       2.49       2.34
C       2.65       3.57       5.37
C       6.00       1.85       2.76
C       4.03       2.87       3.45
C       4.60       2.52       4.68
C      19.26      18.49      27.48
C      21.19      19.59      29.21
C      19.16      19.83      27.91
C      21.31      18.26      28.79
C      20.12      20.37      28.76
C      20.35      17.72      27.93
C      17.16      11.40      27.68
C      14.87       8.95      29.04
C      16.09      12.10      27.12
C      15.94       8.25      29.60
C      15.32      10.09      28.33
C      16.71      10.25      28.38
C      30.60      17.46      27.53
C      29.57      20.50      29.20
C      31.76      18.09      27.08
C      28.40      19.88      29.63
C      30.37      19.62      28.43
C      29.80      18.34      28.30
S      11.06       7.36      12.87
S      14.68       8.94      11.46
S      21.93      13.37      18.20
S      21.16      13.68      22.31
S       7.48       5.08      18.23
S       7.36       4.30      22.34
S      28.51      15.89      13.02
S      25.52      18.17      11.16
S      18.33      11.18       6.10
S      18.53      11.97       1.99
S       2.53       3.69       3.63
S       6.12       1.73       4.50
S      14.54      11.35      27.44
S      17.49       9.00      29.27
S      31.88      19.75      27.61
S      28.28      18.22      29.10
S      22.01      11.23      13.16
S      12.44      13.86      17.07
S      16.52       4.41       2.59
S      17.90      21.00      27.36
O       7.39      10.83      16.21
O       7.48       7.65      16.96
O       9.01      11.55      18.90
O      10.16      10.74      14.64
O       7.28       8.94      18.85
O       9.06       8.74      14.40
O       9.58      12.90      17.18
O       8.51      13.46      14.49
O      24.86      10.72      13.96
O      25.86      13.44      14.54
O      25.46       8.61      14.50
O      25.45      11.77      18.86
O      24.21      12.18      16.97
O      18.42       5.48       8.14
O      16.63       7.58       9.87
O      15.73       4.03       7.03
O      18.44       7.31       5.49
O      15.62       5.53       9.77
O      18.33       8.62       7.37
O      17.35       4.11       5.47
O      20.26       4.70       5.50
O      21.04       5.82      10.02
O      21.29       4.05       7.44
O      19.78       7.73      10.03
O      17.28       2.80       9.57
O      19.54       3.03       9.87
O      15.99      16.26      24.28
O      17.73      15.45      21.64
O      18.70      16.76      25.97
O      15.99      19.43      23.59
O      18.84      14.82      23.54
O      16.06      18.15      21.69
O      17.07      18.22      26.52
O      14.14      18.40      25.97
O      13.36      14.60      23.29
O      13.15      16.34      25.89
O      14.59      15.36      21.52
O      17.20      13.91      26.12
O      14.93      13.69      25.89
O      24.60      21.72      32.40
O      17.09       6.62      30.79
O      22.00      21.40      30.48
O      26.34      19.60      30.67
O      14.81       6.48      30.63
O      18.76       3.91      30.80
O      23.18      19.45      30.50
O      18.50      14.55       0.74
O      11.25       0.91       2.80
O      18.42      15.84       2.63
O      12.41       1.68       1.00
O       6.99       1.40       0.70
O       8.09       0.82       2.63
O      23.16      12.14      12.54
O      20.80      11.61      12.48
O      22.07      11.25      14.60
O      11.28      14.75      16.45
O      13.63      14.66      17.00
O      12.42      12.54      16.50
O      17.86       3.63       2.96
O      16.34       4.24       1.18
O      16.53       5.73       3.17
O      16.57      20.36      27.93
O       9.45       4.51      28.07
O       9.25       3.26      25.92
O      12.60      10.95      13.30
O      13.13       5.34      11.06
O      24.09      12.24      21.29
O      19.02      14.84      19.22
O       7.27       7.54      21.28
O      16.17      19.55      19.28
O      24.61      15.39      12.96
O      29.42      18.67      11.28
O      18.57       8.70       3.06
O      18.31      14.43       5.06
O       4.11       2.70       7.09
O       4.53       2.70       1.04
O      18.45      11.79      27.55
O      13.58       8.55      29.16
O      30.29      16.17      27.24
O      21.24       4.07      29.49
