196

Cu       3.97      27.42       4.44
Cu       4.90      26.12       1.70
Cu       2.37      24.96       3.23
Cu      26.58      17.87      20.18
Cu      25.21      19.22      17.66
Cu      27.78      20.56      19.00
Cu      18.71       2.99      10.37
Cu      20.20       4.48      12.73
Cu      17.47       5.65      11.58
Cu      12.21      13.40      25.72
Cu      11.03      12.27      28.44
Cu      13.57      10.88      27.09
H       6.14      29.71       4.76
H       7.27      28.08       0.91
H      29.09      24.67       5.39
H       2.25      28.03       7.02
H       6.53      25.19      29.72
H       1.63      22.52       1.35
H      24.72      15.33      20.57
H      22.85      17.17      17.11
H       1.14      21.06      21.04
H      28.54      17.37      22.61
H      24.61      21.31      15.36
H      28.16      23.07      17.10
H      20.68       0.58       9.85
H      22.75       2.60      13.08
H      14.89       5.98       9.74
H      16.54       2.29       8.17
H      20.81       6.58      15.00
H      17.08       8.17      13.49
H      10.19      15.79      25.16
H       8.61      14.26      28.89
H      15.89      10.27      24.97
H      14.06      13.78      23.21
H       9.30       9.30       0.60
H      14.18       8.62      29.19
H       9.88       2.45       2.44
H       8.17       1.12       4.68
H      10.02       2.60       5.53
H       8.40       0.65       1.64
H      20.12      13.06      16.88
H      21.54      15.04      16.93
H      20.15      13.28      19.96
H      22.44      14.02      19.69
H      24.96      27.65       9.38
H      23.02      29.10       9.54
H      24.94      27.69      12.47
H      24.21      30.01      12.22
H       5.70      18.23      28.90
H       7.22      16.33      28.95
H       5.63      17.80      25.84
H       7.91      17.11      26.05
H      27.36      28.57      10.00
H      29.27      28.41       8.45
H      27.73      25.51      10.23
H      28.10      25.63       7.83
H      18.01      13.94      20.29
H      16.16      13.95      21.88
H      17.51      10.90      20.14
H      17.01      11.07      22.51
H       3.35      17.25      25.61
H       1.51      17.28      24.03
H       3.12      20.33      25.61
H       2.42      20.13      23.33
H      12.34       1.87       5.64
H      14.32       2.00       7.06
H      12.71       4.92       5.25
H      13.49       4.92       7.56
H       2.52      20.65      27.90
H       2.67      22.28      29.72
H       5.59      20.48      28.16
H       5.49      22.84      28.64
H      21.07      10.76      17.62
H      21.00       8.71      16.27
H      18.05      10.25      18.00
H      18.10       9.56      15.67
H      13.21       4.91       2.94
H      13.07       6.29       0.94
H      10.12       4.83       2.80
H      10.28       7.07       1.97
H      24.23      25.53      12.81
H      24.29      23.57      14.28
H      27.24      24.94      12.42
H      27.22      24.36      14.78
C       6.26      29.15       3.85
C       7.17      29.33       2.79
C       6.82      28.32       1.87
C       0.74      25.48       5.61
C       0.72      26.39       6.68
C       1.85      27.20       6.44
C       5.69      24.99      30.38
C       4.72      23.97      30.31
C       2.49      23.07       1.00
C      24.42      15.95      19.73
C      23.35      15.77      18.82
C      23.47      16.88      17.96
C      29.62      20.16      21.26
C      29.82      19.21      22.28
C      28.79      18.27      22.05
C      25.47      21.58      15.95
C      26.35      22.67      15.81
C      27.30      22.47      16.83
C      21.03       1.24      10.64
C      22.19       1.15      11.44
C      22.08       2.27      12.29
C      15.47       5.09       9.51
C      15.22       4.09       8.55
C      16.30       3.20       8.71
C      19.89       6.81      14.47
C      18.97       7.85      14.67
C      17.98       7.61      13.70
C       9.97      15.25      26.08
C       8.95      15.48      27.02
C       9.16      14.48      27.99
C      15.28      11.14      24.71
C      15.41      12.02      23.62
C      14.36      12.94      23.82
C      11.54      10.15      30.40
C      11.08       7.97       0.17
C      13.32       9.22      29.47
C      10.22       2.85       4.49
C       9.57       2.23       3.47
C       8.53       1.27       3.65
C       8.00       0.52       2.65
C      19.93      12.87      18.97
C      20.48      13.41      17.85
C      21.49      14.43      17.84
C      22.40      14.69      18.82
C      25.27      27.46      11.45
C      24.68      28.02      10.37
C      23.67      29.05      10.41
C      23.49      29.97      11.40
C       5.45      18.27      26.81
C       6.06      17.84      27.94
C       7.11      16.85      27.99
C       7.95      16.52      26.98
C      27.29      26.50      10.40
C      27.73      27.58       9.72
C      28.66      27.51       8.62
C      28.80      26.47       7.75
C      17.99      11.86      19.96
C      17.61      12.98      20.62
C      16.68      13.00      21.72
C      16.41      11.98      22.58
C       3.52      19.34      25.83
C       3.03      18.22      25.23
C       2.07      18.21      24.15
C       1.81      19.23      23.29
C      12.26       3.93       5.19
C      12.73       2.86       5.89
C      13.77       2.93       6.89
C      14.11       4.02       7.63
C       4.59      20.31      27.76
C       3.51      20.99      28.21
C       3.57      22.10      29.13
C       4.63      22.93      29.31
C      19.02      10.76      18.09
C      20.10      10.31      17.41
C      20.06       9.26      16.41
C      19.00       8.94      15.62
C      11.13       4.67       3.19
C      12.22       5.24       2.61
C      12.17       6.22       1.56
C      11.14       7.05       1.29
C      26.29      25.47      12.32
C      25.20      25.09      13.06
C      25.23      24.09      14.10
C      26.31      23.76      14.86
N      19.00      11.82      19.00
N      11.18       3.85       4.32
N       4.55      19.33      26.77
N      26.30      26.50      11.40
N       5.79      27.60       2.35
N       5.44      28.11       3.57
N       2.47      26.80       5.32
N       1.78      25.73       4.80
N       2.93      24.15       1.67
N       4.05      24.63       1.02
N      24.52      17.64      18.32
N      25.11      17.07      19.42
N      28.06      18.63      20.99
N      28.57      19.80      20.49
N      27.00      21.35      17.53
N      25.87      20.80      16.98
N      20.95       2.95      12.02
N      20.30       2.31      10.99
N      17.12       3.63       9.69
N      16.60       4.81      10.19
N      18.30       6.51      12.98
N      19.48       6.01      13.47
N      10.22      13.73      27.65
N      10.73      14.21      26.46
N      13.68      12.63      24.93
N      14.25      11.51      25.49
N      12.92      10.24      28.69
N      11.81      10.82      29.26
