172

Cd       9.45       1.31       5.64
Cd      15.56       6.68       9.19
Cd       8.88      13.26       9.19
Cd       2.77       7.89       5.64
H       9.69       1.70       2.52
H      15.79       6.31      12.31
H       8.64      12.88      12.31
H       2.54       8.27       2.52
H       6.25       0.89       4.67
H      12.36       7.11      10.16
H      12.07      13.69      10.16
H       5.97       7.47       4.67
H       8.42       1.95       0.38
H      14.52       6.05      14.45
H       9.91      12.63      14.45
H       3.81       8.53       0.38
H       4.81       1.08       2.63
H      10.91       6.91      12.19
H      13.52      13.50      12.20
H       7.41       7.66       2.64
H       4.59       1.69       0.30
H      10.69       6.31      14.53
H      13.74      12.89      14.53
H       7.64       8.26       0.30
H      13.33       3.09      13.52
H       7.22       4.91       1.31
H       5.00      11.49       1.31
H      11.10       9.67      13.52
H      13.24       3.54      11.22
H       7.13       4.46       3.61
H       5.09      11.04       3.61
H      11.19      10.12      11.22
H       9.46       3.23      13.33
H       3.35       4.76       1.50
H       8.87      11.34       1.50
H      14.97       9.82      13.33
H      11.99       4.20       9.21
H       5.88       3.79       5.62
H       6.34      10.37       5.62
H      12.44      10.79       9.21
H       8.33       3.88      11.21
H       2.23       4.11       3.62
H       9.99      10.70       3.62
H      16.10      10.46      11.21
H       8.41       4.24       8.97
H      14.52       3.75       5.86
H       9.92      10.34       5.86
H       3.81      10.82       8.97
H       9.96       4.33       8.11
H       3.85       3.67       6.72
H       8.37      10.24       6.72
H      14.48      10.91       8.11
H      11.24       6.45       7.97
H       5.13       1.54       6.86
H       7.09       8.12       6.86
H      13.19      13.03       7.97
H       7.51       6.29      10.18
H      13.62       1.71       4.65
H      10.81       8.29       4.65
H       4.70      12.87      10.18
H      11.21       8.91       8.14
H       5.11      12.25       6.70
H       7.12       5.67       6.69
H      13.21       2.33       8.13
H       7.51       8.75      10.35
H      13.63      12.41       4.49
H      10.81       5.83       4.48
H       4.69       2.17      10.34
C       8.60       1.58       2.49
C      14.70       6.42      12.35
C       9.73      13.00      12.34
C       3.62       8.15       2.48
C       6.69       1.12       3.69
C      12.79       6.88      11.14
C      11.64      13.46      11.14
C       5.54       7.70       3.69
C       7.88       1.70       1.30
C      13.99       6.30      13.53
C      10.44      12.88      13.53
C       4.34       8.28       1.30
C       5.89       1.23       2.55
C      11.99       6.77      12.28
C      12.44      13.35      12.28
C       6.33       7.81       2.55
C       6.49       1.52       1.31
C      12.59       6.48      13.51
C      11.84      13.06      13.51
C       5.74       8.10       1.32
C       5.67       1.65       0.12
C      11.77       6.35      14.71
C      12.66      12.93      14.71
C       6.56       8.23       0.12
C      12.25       3.15      13.69
C       6.14       4.85       1.14
C       6.08      11.43       1.14
C      12.18       9.73      13.69
C      11.47       3.38      12.49
C       5.37       4.61       2.34
C       6.86      11.19       2.34
C      12.96       9.97      12.49
C      12.15       3.61      11.28
C       6.05       4.39       3.55
C       6.18      10.97       3.55
C      12.28      10.19      11.28
C      10.06       3.46      12.46
C       3.96       4.53       2.37
C       8.26      11.12       2.37
C      14.37      10.04      12.46
C      11.46       3.97      10.14
C       5.36       4.02       4.69
C       6.86      10.60       4.69
C      12.97      10.56      10.14
C       9.41       3.82      11.29
C       3.31       4.17       3.54
C       8.91      10.76       3.54
C      15.02      10.41      11.29
C       9.41       4.68       8.99
C       3.31       3.31       5.84
C       8.91       9.90       5.84
C      15.02      11.26       8.99
C       9.40       6.19       9.10
C       3.29       1.81       5.73
C       8.93       8.39       5.73
C      15.03      12.77       9.10
C      10.43       6.94       8.53
C       4.33       1.05       6.31
C       7.90       7.64       6.30
C      14.00      13.52       8.52
C       8.36       6.85       9.77
C       2.25       1.14       5.06
C       9.97       7.73       5.06
C      16.07      13.43       9.77
C      10.42       8.33       8.62
C       4.32      12.83       6.22
C       7.91       6.25       6.21
C      14.00       1.75       8.61
C       8.35       8.24       9.87
C       2.25      12.92       4.97
C       9.98       6.34       4.96
C      16.07       1.66       9.86
C       9.38       8.99       9.29
C       3.29      12.16       5.55
C       8.95       5.58       5.54
C      15.04       2.41       9.28
C       9.34      10.50       9.31
C       3.25      10.65       5.53
C       8.99       4.07       5.52
C      15.08       3.92       9.30
N       8.01       1.29       3.66
N      14.12       6.70      11.17
N      10.31      13.28      11.17
N       4.21       7.87       3.66
N      10.12       4.11      10.17
N       4.01       3.88       4.66
N       8.21      10.47       4.66
N      14.31      10.69      10.17
Cl      11.01      13.02       4.29
Cl       4.90       8.13      10.54
Cl       7.31       1.55      10.54
Cl      13.43       6.44       4.29
Cl      10.62       1.60       7.96
Cl       4.52       6.39       6.87
Cl       7.70      12.98       6.87
Cl      13.80       8.18       7.96
O      10.29      11.14       8.74
O       4.19      10.01       6.09
O       8.04       3.43       6.09
O      14.13       4.57       8.74
O       8.34      11.07       9.87
O       2.24      10.09       4.97
O       9.99       3.51       4.96
O      16.09       4.49       9.85
