76

Al       6.01       6.36       8.66
Al       2.68       6.29       8.65
Al       2.68      12.57      17.23
Al       6.01      12.61      17.23
H       2.90       2.31       3.29
H       6.51       2.74       3.28
H       2.97       3.93       5.16
H       6.60       3.42       5.45
H       5.59       3.08      14.33
H       5.59       4.45      12.23
H       3.04       3.39      11.53
H       3.04       2.02      13.63
H       6.40       9.21       5.61
H       6.33      10.52       3.47
H       2.16       9.60       3.03
H       2.22       8.29       5.18
H       6.23       9.59      11.28
H       2.43       9.41      14.47
H       2.37       8.03      12.39
H       6.24      12.30      13.78
H       4.40       4.66       8.13
H       1.07       8.01       8.18
H       4.28       1.76      16.73
H       0.99      10.94      16.66
C       4.36       7.88       6.78
C       4.30       7.85      10.50
C       0.97       4.82      10.52
C       1.04       4.71       6.83
C       1.95       2.69       3.68
C       0.83       2.37       2.99
C       2.00       3.52       4.87
C       0.94       3.82       5.66
C       6.49       3.16      13.71
C       6.48       3.91      12.55
C       0.99       4.00      11.77
C       2.15       3.32      12.16
C       2.15       2.57      13.33
C       0.99       2.49      14.11
C       5.48       9.30       5.04
C       5.44      10.02       3.85
C       4.24      10.13       3.13
C       3.08       9.51       3.61
C       3.11       8.79       4.80
C       4.31       8.68       5.52
C       5.40       9.53      11.99
C       5.41      10.36      13.12
C       4.34      10.28      14.04
C       3.26       9.44      13.77
C       3.23       8.66      12.62
C       4.32       8.69      11.73
C       4.34      11.05      15.32
C       4.22      10.91       1.86
C       0.85       1.48       1.82
C       0.99       1.67      15.36
C       6.49      11.38      13.21
O       3.18       7.36      10.15
O       5.52       7.50       7.17
O       6.58       4.99       7.40
O       5.41       7.68       9.89
O       6.51       5.30      10.16
O       3.25       7.62       7.35
O       4.36       5.50       8.62
O       2.08       4.98       9.90
O       2.19       5.14       7.18
O       1.03       7.15       8.61
O       5.34      11.26       1.37
O       3.21      11.33      15.83
O       2.12       1.33      15.84
O       3.08      11.17       1.35
O       1.98       1.09       1.37
O       5.48      11.35      15.82
O       4.31       0.90      17.18
O       6.37       1.17       1.33
O       6.51       1.35      15.84
O       1.01      11.76      17.18
O       0.92      11.27      12.66
