88

Zn      12.85       8.49       0.02
Zn       2.69       4.66       0.07
Zn      15.40       7.40       1.81
Zn      19.37      10.63      10.78
H      20.09      16.77      12.30
H      10.49       7.69      10.53
H       7.02      13.10       6.70
H      11.91       7.85       8.30
H      13.04       7.31       6.18
H       9.25       6.38       4.37
H       8.11       6.92       6.49
H      13.68      11.15      10.21
H      10.91      16.37      12.34
H       8.10       5.78      11.67
H       4.95       9.08       0.41
H       4.12       2.70       2.35
H       8.12      11.73       8.40
H      11.24      10.56      10.58
H      20.67      15.46      10.56
H       7.41       9.06       7.82
H       3.99       9.98       2.32
H      15.92      14.28      11.59
H      13.91       5.85       4.13
H      18.25       7.63      10.92
H       1.76       2.50       1.79
H      16.28      10.30       9.94
H       3.88       6.31       4.71
H       5.73       4.97       6.17
H       6.69      14.31       4.59
C      14.50      11.06       0.46
C      11.51       7.46       2.60
C      16.43      11.28      10.37
C       9.64       8.14      10.04
C       3.88       5.55       3.94
C      15.47      12.27      10.66
C       4.21       4.19       4.04
C      11.91       6.83       3.80
C      13.41       1.88       0.07
C       5.50       3.28       7.48
C       5.30       3.98       6.28
C       9.23       8.06       8.69
C       4.57       3.42       5.23
C       7.28      14.77       5.38
C       7.48      14.08       6.57
C      10.95      13.24      12.46
C       8.14      14.65       7.68
C      11.32       7.50       7.44
C      11.96       7.20       6.25
C      11.23       6.86       5.09
C       9.84       6.72       5.22
C       9.19       7.03       6.42
C      11.75      12.55      11.54
C       9.91       7.49       7.54
C      14.04      12.10      10.61
C      13.11      12.88      11.19
C       3.96      11.96       0.17
C       7.94      12.53       9.11
C       7.20       5.67      12.30
C      11.02      11.38      11.26
C       7.75      14.43      10.22
C       8.05       8.83       8.67
C      16.05      10.21       1.75
C       8.06      13.92       8.95
C      15.83      11.27       0.86
C      16.25      13.31      11.21
C       3.98       3.70       2.74
C      13.21       6.40       3.50
C      18.86       7.87      11.78
C       1.08       2.75       0.98
I       9.78       8.54       2.22
I       6.62       4.27       8.97
N      13.99       9.94       1.02
N       3.65       7.41       0.19
N       7.56      12.25      10.38
N       9.88      11.39      11.98
N      20.39      13.42      11.06
N       7.79       9.33       9.89
N      14.97       9.41       1.84
N      17.54      12.95      11.28
N       3.54       4.69       1.94
N      13.56       6.75       2.25
N      19.08       9.15      12.15
N      13.76       4.05       0.68
N      12.51       7.41       1.68
N      17.65      11.69      10.75
N       3.47       5.84       2.69
N       8.76       8.90      10.74
F      13.51      14.09      11.73
