57

Al       4.04       5.75       8.30
Al       0.71       5.74       8.31
H      -0.96       4.24       7.43
H       2.37       7.33       8.99
H       1.02       4.96      12.24
H       1.17       4.91      14.75
H      -2.91       6.23      14.98
H       4.23       6.70       1.61
H       0.15       5.38       1.86
H       0.37       5.26       4.36
H       4.24       1.44       7.41
H       3.17       6.19      11.40
H       2.52       6.56      12.96
H      -1.82       6.59       5.20
H      -1.15       6.92       3.61
H       2.74       9.69       8.83
H      -3.52      10.82      10.13
H      -2.90       9.15      10.18
C       2.33       3.34       8.40
C       2.42       5.87       5.88
C      -0.89       8.17       8.21
C      -1.01       5.65      10.72
C      -1.01       5.64      12.20
C       0.17       5.26      12.86
C       0.27       5.24      14.24
C      -0.87       5.61      14.99
C      -2.05       5.97      14.36
C      -2.16       6.00      12.95
C       3.39       6.41       2.23
C       2.19       6.09       1.61
C       1.07       5.67       2.37
C       1.20       5.61       3.74
C       2.39       5.96       4.41
C       3.53       6.37       3.64
C      -1.90      10.45       8.78
C       3.32       1.06       7.85
C      -0.92       9.63       8.23
C       2.33       1.87       8.37
C      -0.30      12.00       7.96
C      -1.54      11.81       8.60
C      -3.12      10.00       9.52
S       0.42      10.50       7.54
S       0.97       1.00       9.01
N      -0.91       5.60      16.41
N       2.21       6.19       0.20
N       3.34       6.43      12.37
N      -1.95       6.74       4.20
O       3.44       3.93       8.18
O       1.33       5.60       6.49
O       0.23       7.59       8.00
O      -2.14       5.50      10.13
O      -2.00       7.57       8.40
O       0.10       5.84      10.13
O       1.21       3.91       8.63
O       3.55       6.06       6.48
O      -0.95       5.16       7.71
O       2.38       6.36       8.90
