82

Zn       8.15       9.73       7.98
Zn       8.13       6.96       7.46
H       9.62      13.08      14.55
H       8.91       5.47       2.35
H      12.42      14.60       4.93
H       3.79       2.11      10.47
H       9.69      11.99       7.11
H       6.48       4.73       8.25
H       6.92      11.42      10.11
H       9.39       5.25       5.39
H       9.00      12.58       1.87
H       9.00      11.94       0.31
H       8.20       4.12      13.58
H       8.82       3.51       0.95
H       8.23       4.75      15.14
H      10.14       3.40       4.07
H       9.63       1.81       4.31
H       6.14      13.28      11.41
H       6.59      14.88      11.11
H      10.92      13.16       6.15
H       5.27       3.56       9.24
H       8.68       9.67      12.03
H       8.48       7.05       3.44
H       8.30       5.44      11.61
H       8.81      11.29       3.84
H       9.43      11.13      13.14
C       8.35       8.99       5.21
C       8.81       4.49       0.47
C       8.62       3.22       5.41
C       7.62      13.48      10.01
C       8.70       4.55       5.84
C       7.56      12.15       9.61
C       7.06       4.24       7.47
C       9.14      12.47       7.92
C       6.91       2.88       7.15
C       9.28      13.84       8.24
C       7.71       2.35       6.09
C       8.25       7.77      10.24
C       8.50      14.36       9.31
C       6.00       2.02       7.87
C      10.18      14.70       7.51
C      10.76       8.21       7.68
C       5.53       8.40       7.73
C      10.98      14.21       6.44
C       5.20       2.51       8.95
C      11.84      15.03       5.75
C       4.35       1.69       9.64
C      12.21       8.23       7.67
C       9.12       9.39       0.99
C       4.09       8.40       7.72
C      13.43       8.29       7.68
C       2.86       8.35       7.70
C       8.65       9.14       3.75
C       8.47       7.58      11.71
C       9.08      10.55       1.82
C       8.59       6.12      13.64
C       8.86      10.41       3.19
C       8.45       6.29      12.27
C       8.69       8.01       2.96
C       8.79       7.26      14.49
C       8.69       8.69      12.51
C       8.92       8.10       1.57
C       8.86       8.56      13.90
C       8.92       6.92       0.73
C       9.04       9.72      14.75
C       9.28      11.02      14.21
C       8.87       5.60       1.27
C       9.38      12.13      15.01
N       7.93       5.03       6.84
N       8.30      11.68       8.59
N       9.31      11.82       1.27
N       8.58       4.83      14.19
N       9.38       2.79       4.34
N       6.87      13.91      11.09
O       8.47      10.02       5.96
O       8.36       6.75       9.48
O       8.00       7.83       5.61
O       7.95       8.95       9.86
O      10.19       9.27       8.10
O       6.09       7.26       7.75
O      10.20       7.14       7.27
O       6.11       9.54       7.71
