180

Cd       8.92      18.42      17.93
Cd       4.10       9.36       8.39
Cd       2.41       0.10       1.15
Cd       7.23       9.16      10.70
H       2.13       5.48      10.83
H       7.51       3.77       1.28
H       9.20      13.03       8.26
H       3.82      14.74      17.80
H       2.24       3.70      12.59
H       7.41       5.56       3.04
H       9.10      14.82       6.50
H       3.93      12.96      16.04
H       5.49       7.37      12.75
H       4.15       1.89       3.21
H       5.84      11.15       6.34
H       7.18      16.62      15.88
H       2.80       2.04      13.85
H       6.85       7.22       4.31
H       8.54      16.47       5.23
H       4.49      11.30      14.78
H       3.34       0.40      15.63
H       6.30       8.86       6.08
H       7.99      18.11       3.46
H       5.03       9.66      13.00
H       6.07       2.97      17.39
H       3.57       6.29       7.85
H       5.26      15.55       1.70
H       7.76      12.22      11.24
H       5.65       4.73      15.67
H       4.00       4.52       6.13
H       5.69      13.78       3.42
H       7.34      13.99      12.96
H       8.52      10.45       4.13
H       4.50      17.32      13.67
H       2.81       8.07      14.96
H       6.83       1.19       5.41
H       8.13      12.20       2.36
H       4.89      15.58      11.90
H       3.20       6.32      16.73
H       6.44       2.94       7.19
H       4.10      12.61       5.27
H       8.93      15.16      14.81
H       7.24       5.90      13.81
H       2.41       3.35       4.27
H       8.54      13.34       0.46
H       4.49      14.43      10.00
H       2.80       5.18      18.63
H       6.85       4.08       9.08
H       8.29      15.32      18.05
H       4.73      12.45       8.51
H       3.04       3.19       1.03
H       6.60       6.06      10.57
H      10.50      17.71       1.55
H       2.53      10.06      11.09
H       0.84       0.80      17.54
H       8.81       8.45       8.00
H       2.93      15.83       3.10
H      10.10      11.95      12.65
H       8.40       2.69      15.98
H       1.24       6.57       6.44
C       3.89       7.60      10.57
C       5.75       1.66       1.03
C       7.44      10.91       8.51
C       5.58      16.86      18.06
C       3.82       6.56      11.64
C       5.83       2.70       2.10
C       7.52      11.96       7.45
C       5.51      15.81      16.99
C       2.89       5.51      11.61
C       6.76       3.75       2.07
C       8.45      13.01       7.47
C       4.58      14.77      17.02
C       2.96       4.52      12.59
C       6.69       4.74       3.05
C       8.38      14.00       6.50
C       4.65      13.77      16.04
C       3.96       4.59      13.57
C       5.69       4.67       4.03
C       7.38      13.93       5.51
C       5.65      13.85      15.06
C       4.75       6.57      12.69
C       4.90       2.69       3.14
C       6.59      11.94       6.40
C       6.44      15.83      15.94
C       4.18       3.55      14.61
C       5.47       5.71       5.07
C       7.16      14.96       4.48
C       5.87      12.81      14.02
C       3.53       2.31      14.61
C       6.11       6.95       5.07
C       7.80      16.21       4.47
C       5.22      11.56      14.02
C       3.83       1.37      15.60
C       5.81       7.88       6.06
C       7.50      17.14       3.49
C       5.52      10.63      13.03
C       5.35       2.81      16.59
C       4.30       6.44       7.05
C       5.99      15.70       2.50
C       7.04      12.07      12.04
C       5.10       3.79      15.64
C       4.55       5.46       6.10
C       6.24      14.72       3.45
C       6.79      13.05      12.99
C       2.61      10.42       5.96
C      10.41      17.35      15.50
C       8.72       8.09      13.12
C       0.92       1.16       3.58
C       2.36      11.40       4.84
C      10.67      16.37      14.38
C       8.98       7.12      14.25
C       0.67       2.14       4.70
C       9.21      11.28       3.99
C       3.81      16.49      13.53
C       2.12       7.23      15.10
C       7.52       2.02       5.56
C       9.01      12.24       3.00
C       4.02      15.53      12.54
C       2.33       6.27      16.08
C       7.32       2.99       6.54
C       9.91      13.31       2.89
C       3.11      14.46      12.44
C       1.42       5.20      16.19
C       8.22       4.06       6.65
C       3.21      12.49       4.64
C       9.81      15.28      14.19
C       8.12       6.02      14.44
C       1.52       3.24       4.90
C       9.73      14.42       1.93
C       3.29      13.35      11.47
C       1.60       4.09      17.16
C       8.04       5.16       7.62
C       8.99      14.29       0.74
C       4.03      13.48      10.28
C       2.34       4.23      18.34
C       7.30       5.03       8.80
C       8.85      15.39      18.99
C       4.18      12.38       9.45
C       2.49       3.13       0.10
C       7.16       6.13       9.64
C      10.09      16.73       1.32
C       2.94      11.04      10.86
C       1.25       1.79      17.76
C       8.40       7.47       8.22
C      10.30      15.67       2.20
C       2.73      12.10      11.74
C       1.04       2.84      16.89
C       8.61       6.42       7.34
N       4.82       5.63      13.62
N       4.82       3.63       4.08
N       6.51      12.89       5.46
N       6.51      14.88      15.01
N       4.73       1.62      16.57
N       4.91       7.64       7.03
N       6.60      16.90       2.51
N       6.42      10.87      12.06
N       3.03      13.43       3.71
N      10.00      14.35      13.25
N       8.31       5.09      15.38
N       1.34       4.17       5.83
N       9.37      16.59       0.19
N       3.65      11.18       9.74
N       1.96       1.92      18.89
N       7.68       7.33       9.35
O       4.89       8.40      10.57
O       4.75       0.86       1.03
O       6.44      10.12       8.51
O       6.58      17.65      18.06
O       2.98       7.65       9.68
O       6.66       1.61       0.14
O       8.35      10.86       9.40
O       4.67      16.91      18.94
O       3.71      10.65       6.61
O       9.32      17.12      16.16
O       7.63       7.87      12.47
O       2.02       1.39       2.93
O       1.80       9.50       6.20
O      11.23      18.27      15.74
O       9.54       9.01      12.89
O       0.11       0.25       3.35
