125

Zn       2.24      -8.32      14.50
Zn       3.88      17.17       0.97
Zn       2.36       3.36       7.77
Zn       3.88       5.59       7.72
Zn      14.66       9.47       0.93
Zn      10.02      -0.54      14.49
H       4.80       0.36       5.24
H      -9.42       5.65      15.35
H       5.67       3.19       4.37
H      -3.10      14.55       1.70
H      -7.68       7.46      15.20
H      -1.40      16.40       1.55
H       7.77       3.77       9.53
H       9.13       2.37      11.05
H       4.72       0.21      13.08
H       4.81       1.62      14.18
H       3.32       1.53      11.48
H      -1.55       5.30      13.15
H       3.43       2.96      12.55
H       1.17       8.40       5.33
H       6.88      -0.11       3.76
H      -0.32       9.16       3.50
H      -0.94       4.10       1.90
H       0.46       4.53       0.88
H       0.61       3.27       3.69
H       5.54       2.12       2.10
H      12.65       2.85       2.47
H      13.78       5.05       2.52
H      -0.23       4.06      11.46
H       4.76      -2.12      13.72
H       3.45      -4.18      13.90
H       5.33      -5.89      12.74
H       2.84       4.62       1.98
H       7.06      -3.83      12.50
H       1.53       8.72       9.50
H       0.13       8.46       8.42
H       0.08       9.96      11.11
H      -1.34       9.70      10.05
H       2.41      12.74       0.60
H       0.71      10.94       0.50
C      10.91       1.88       0.53
C      -1.30       7.24      12.23
C      -1.10       5.84      12.32
C       7.31       1.02       1.39
C      -0.34       5.14      11.37
C       0.33       5.82      10.33
C       0.12       7.19      10.25
C       0.47       8.44       9.47
C      -0.45       9.22      10.49
C      -0.40      14.61       0.68
C       0.97      14.35       0.62
C      11.63       3.18       0.60
C       1.35      12.99       0.62
C       0.40      11.98       0.58
C      -0.99      12.25       0.64
C       1.95      15.45       0.49
C      -1.35      13.59       0.73
C      -2.52      14.56       0.77
C      -1.43      15.72       0.68
C       4.98       3.95       9.46
C       4.25       2.97       5.98
C       2.03       5.84       5.82
C      12.49       3.55       1.65
C       1.26       5.13       9.40
C      -1.33       7.74       1.43
C      13.77       7.00       0.52
C       8.22       0.92      13.25
C      -2.03       7.97      13.30
C      -1.96      11.14       0.50
C       5.30       2.51      11.45
C       5.87       3.26      10.42
C       7.28       3.21      10.32
C       8.05       2.42      11.19
C      13.13       4.80       1.68
C       7.46       1.70      12.25
C       6.07       1.79      12.36
C       4.87       1.29      13.13
C       3.99       2.13      12.11
C       0.86       5.51       3.62
C       5.28       1.12       4.63
C       1.27       6.35       4.65
C       0.86       7.69       4.55
C       0.03       8.13       3.52
C      -0.38       7.26       2.48
C      12.98       5.73       0.63
C       0.09       5.96       2.55
C       0.03       4.59       1.89
C       0.99       4.09       3.07
C       5.10       2.43       4.91
C       6.20       0.73       3.57
C       6.28       1.36       2.39
C       5.25      -4.73      15.02
C       2.36       3.77       2.54
C       6.38      -2.94      12.59
C       5.92      -3.52      15.03
C       5.37      -3.04      13.70
C       4.51      -4.42      13.73
C      -0.70       7.88      11.15
O       3.78      -7.05      15.09
O      -1.08       7.39       0.21
O      13.48       7.97       1.31
O      11.24       0.92       1.33
O       8.46      -1.86      15.06
O       7.77       0.96      14.44
O       9.27       0.25      12.89
O      -3.06      11.20       1.18
O      -7.85       1.33      15.15
O       7.08       1.35       0.16
O       8.36       0.42       1.80
O       5.30       5.11       8.98
O      -4.56       7.50      15.08
O       3.01      15.44       1.23
O      -2.98       8.76      12.93
O      -1.66       7.78      14.49
O       3.90       3.34       9.18
O       4.57      -5.29      12.63
O       2.93       2.70       2.66
O       6.49      -1.99      11.84
O       3.31       2.24       6.49
O       4.52       4.16       6.33
O       1.70       4.69       6.25
O       2.96       6.59       6.31
O       1.03       3.91       9.06
O       2.25       5.82       8.99
O      -2.31       8.43       1.82
