96

Zn       8.32       8.47       8.90
Zn       5.56       8.14       8.63
H       3.39       9.47       9.89
H       0.91       9.59       9.92
H       0.91       6.43       6.95
H      12.97       9.89      10.84
H      12.97       7.32       7.34
H      10.49       7.36       7.44
H      15.10       7.26       7.63
H      -1.22       9.33       9.91
H       4.78       9.15      12.89
H       4.54       9.11      15.35
H       8.08       6.63      15.57
H       5.53       9.57       1.95
H       9.54       7.98       2.17
H       9.34       7.91       4.64
H       9.39       7.81       0.06
H       4.42       8.77      17.46
H       5.31       4.05       8.34
H       5.37       1.54       8.24
H       4.45      15.02       9.13
H       8.58      15.05       7.98
H      10.52       3.70      10.01
H       9.67       5.26       9.87
H      10.49       4.57       8.47
H      10.78       1.89       8.47
H       9.87       0.38       8.78
H      10.31       1.46      10.12
H       4.21      11.65      10.10
H       3.68      11.80       8.43
H       3.32      13.11       9.60
H       9.69      13.15       7.42
H       8.89      11.56       7.25
H       9.54      12.05       8.81
C       6.64       8.12      11.34
C       6.61      10.88       8.74
C       7.27       8.49       6.19
C       7.27       5.74       8.73
C       2.79       8.82       9.25
C       1.40       8.87       9.27
C       0.67       8.00       8.43
C       1.41       7.13       7.62
C       2.80       7.14       7.67
C      -0.78       7.96       8.37
C      14.66       8.66       9.15
C      12.47       9.31      10.06
C      13.21       8.61       9.10
C      12.48       7.88       8.13
C      11.10       7.90       8.17
C      11.08       9.27      10.03
C       6.56       7.97      12.83
C       5.50       8.61      13.50
C       5.37       8.57      14.88
C       6.30       7.87      15.66
C       7.35       7.21      15.00
C       7.48       7.25      13.61
C       6.25       7.79      17.12
C       7.57       8.83       0.41
C       6.37       9.17       2.53
C       7.54       8.75       1.86
C       8.61       8.29       2.65
C       8.51       8.25       4.03
C       7.33       8.63       4.69
C       6.26       9.10       3.91
C       7.41       4.24       8.75
C       6.24       3.50       8.49
C       6.27       2.12       8.44
C       7.49       1.45       8.63
C       8.68       2.17       8.88
C       8.64       3.58       8.98
C       5.36      14.46       8.89
C       6.52      15.18       8.59
C       7.69      14.48       8.25
C       7.73      13.09       8.28
C       6.56      12.37       8.64
C       5.35      13.07       8.92
C       9.90       4.32       9.36
C       9.98       1.43       9.07
C       4.07      12.37       9.28
C       9.03      12.42       7.91
N       3.49       7.97       8.47
N      10.39       8.59       9.10
N       7.59       0.05       8.57
N       6.41      16.58       8.66
Cl       3.68       6.06       6.68
Cl      10.19      10.13      11.22
Cl       8.79       6.34      12.94
Cl       4.79       9.68       4.62
O       7.79       7.98      10.81
O       5.57       8.41      10.71
O       5.59      10.20       8.38
O       7.69      10.38       9.19
O       6.20       8.03       6.68
O       8.32       8.82       6.84
O       8.30       6.45       8.45
O       6.11       6.20       8.97
