188

Zn      -3.84      -4.34       9.99
Zn      -8.12      12.60       6.09
Zn       9.13      11.39       8.15
Zn      -1.30      -3.14       8.04
H      -5.03      -4.99      12.73
H      -2.99       4.11       8.47
H      -4.76      12.16       6.83
H      12.84      -4.05       9.68
H      -8.85       9.83      10.29
H      -2.64      -0.54       7.11
H      -0.26      -0.63      10.15
H       6.95      11.90       5.94
H       0.44      -4.58      10.31
H       5.84      10.42       8.50
H       0.04      -0.81      15.77
H       9.95      14.24       3.92
H      -0.96       3.95      16.44
H       3.70       8.23       0.49
H       2.37       9.40       0.73
H       2.32       8.82       3.19
H       2.06       7.37       2.18
H       3.65       7.66       2.94
H       2.42       3.50      15.09
H       1.13       4.73      15.08
H       1.46       5.04      12.59
H       2.96       5.36      13.50
H       1.97       1.20      16.20
H       2.76       3.82      12.62
H      -5.77       1.96      11.52
H      -6.80       3.12      12.16
H      -3.39       7.67       9.11
H      -2.37       6.49       8.47
H      12.03      -6.07      15.28
H      17.36       3.74       0.38
H       9.94      15.89       0.55
H       4.45       6.11      15.41
H      -0.74       2.70       1.98
H      -2.88       1.95      16.02
H      -0.95       1.14       2.83
H      -2.31       2.30       4.62
H      -0.69       3.04       4.47
H      -2.11       3.85       3.77
H       3.83       9.32      12.66
H       2.82       7.92      13.10
H       4.33       6.45      11.66
H       3.52       7.74      10.73
H       5.23       7.91      11.18
H      -5.16       8.14       7.21
H      -1.32      10.25       9.26
H      -4.38       9.64       7.75
H      -3.72      10.14       5.35
H      -3.12       8.54       5.86
H      -4.57       8.66       4.82
H      12.64      -0.85       9.23
H      13.33       0.20      10.49
H      12.40      -1.39      12.26
H      11.13      -0.62      11.28
H      11.60      -2.32      10.97
H      -3.86      -1.28      13.62
H       8.17      -4.68      11.38
H      -2.59      -2.16      14.49
H      -4.24      -4.04      14.95
H      -4.78      -2.49      15.63
H      -5.51      -3.09      14.13
H       9.29      13.07       1.60
H       9.28      11.31       1.35
H      11.72      11.39       0.69
H       4.93       2.68      16.17
H      11.71      13.16       0.90
H       7.47       8.88      11.65
H       1.17      10.23       9.23
H       8.73       8.91      10.53
H      -0.90      -0.02       4.70
H       0.13      -0.60       5.89
H       5.69      -4.65      11.41
H      -6.80       5.43      11.36
C      15.02      -5.88      12.15
C      -1.80       1.78      16.06
C      -0.17       0.24      15.95
C      -0.73       2.89      16.29
C      -1.50      -0.29      12.79
C       7.22      12.00       2.99
C       0.13       2.28      15.12
C       4.73      10.59       0.56
C      -0.94       1.14      14.89
C       5.82      11.71       0.79
C      -1.35       0.53      13.68
C      10.56      14.95       4.48
C       6.47      12.00       2.02
C       0.63      11.05       9.71
C       6.22      -5.48      10.94
C      -5.37      12.70       7.54
C      13.05      -5.05       9.32
C       1.37      12.13      10.25
C      -1.46      12.15      10.28
C       7.61      -5.49      10.92
C      -0.75      11.06       9.73
C       2.76      12.22      10.02
C      -5.13      12.93       8.92
C      -2.84      12.31      10.02
C      -3.96      12.58       9.60
C       3.92      12.35       9.67
C      -5.95       5.13      10.75
C      -3.81       4.42       9.12
C      -5.26       6.13      10.03
C      -4.59       3.41       9.73
C      -4.09       5.77       9.29
C      -5.61       3.79      10.65
C      -5.80       7.42       9.87
C       5.26      12.47       9.25
C      -4.42       2.06       9.39
C      -4.38       0.88       9.03
C      -6.39       8.42       9.46
C      17.24       1.20       0.83
C       4.64       8.63      15.01
C      -8.36       9.97       9.33
C      -3.30      -1.04       7.81
C      17.06      -0.20       0.88
C      11.94      -8.65      15.00
C       4.32       7.97      16.20
C      -7.15       9.43       8.86
C      11.78      -7.87      16.18
C      17.08      -0.89       2.11
C      12.63      -8.08      13.91
C      13.45      -7.61      13.13
C      17.31      -1.58       3.10
C      -0.94      -1.36      10.57
C       7.91      11.90       5.43
C      -7.02      10.02       7.56
C      15.08      -1.60       9.37
C      -2.34      -2.52      11.84
C      -4.23      -0.47       8.71
C       9.58      11.92       3.97
C       0.67      -4.99       9.34
C       6.08      11.45       8.71
C       8.17      10.73      11.25
C      -1.27      -1.92       5.25
C      14.43      -7.15      12.25
C      17.71      -2.33       4.21
C       3.23       8.91       1.23
C       2.79       8.15       2.46
C       1.64       3.96      14.46
C      -1.62      -1.29      11.81
C       2.24       4.58      13.22
C      -1.41       2.13       2.65
C      -1.65       2.87       3.96
C       3.83       8.23      12.80
C       4.26       7.54      11.52
C      -4.89       9.15       6.90
C      -4.03       9.13       5.66
C      13.01      -0.83      10.27
C      11.98      -1.32      11.25
C      -3.52      -2.28      13.91
C       8.15      11.97       4.04
C      -4.57      -3.02      14.70
C       9.92      12.17       1.61
C      11.09      12.29       0.66
C       0.89       1.36      16.15
N      -3.90      -5.89      11.18
N      15.67      -2.72       8.92
N      -2.10      -3.24      10.72
N      10.10      11.84       5.20
N      -0.16      -4.81       8.29
N       7.30      11.96       8.50
N       9.06      11.50      10.60
N      -1.00      -2.96       6.07
N      -6.32       2.79      11.33
N      -3.34       6.76       8.65
N      12.08      -6.51      16.19
N      11.24      14.57       5.57
N       4.02       6.61      16.19
N       7.93       9.41      10.91
N      -0.80      -0.64       5.49
N      -6.54      13.24       7.18
N       7.34      13.27       8.87
N      10.95      10.78       8.39
N      -3.26      -2.38       7.96
N      -1.23      -2.50       9.94
N       9.06      11.82       6.11
N      -8.06      10.82       7.30
O       4.18       9.91       1.63
O       0.69       2.96      14.06
O      17.16       1.94       2.01
O       4.76       7.87      13.86
O      -6.09       9.90       6.59
O      14.16      -1.72      10.36
O      -3.23      -3.05      12.72
O      10.45      11.98       2.94
