174

Zn       9.09       1.59       5.76
Zn      -0.13       7.64       8.07
Zn       1.59       9.36       5.76
Zn       7.64       0.14       8.07
Zn       9.36      -1.59       5.76
Zn       0.14      10.82       8.07
Zn      -1.59       9.09       5.76
Zn      10.82      -0.13       8.07
C       9.23       0.00       1.90
C      -0.00       9.23      11.93
C       0.00       9.23       1.89
C       9.23      -0.00      11.93
C       9.23       0.00       0.67
C      -0.00       9.23      13.15
C      -0.00       9.23       0.67
C       9.23       0.00      13.15
C       9.23       0.00      10.50
C       0.00       9.23       3.33
C      -0.00       9.23      10.50
C       9.23       0.00       3.33
C      11.69       2.46       6.91
C      -2.63       6.59       6.91
C       2.46       6.77       6.91
C       6.59       2.64       6.91
C       6.77      -2.46       6.91
C       2.63      11.86       6.91
C      -2.46      11.69       6.91
C      11.86      -2.63       6.91
C       3.81       2.22       8.05
C       4.62       6.50       4.75
C       2.22      -3.81       8.05
C       6.50      13.84       4.75
C      -3.81      -2.21       8.05
C      13.84      11.96       4.75
C      -2.21       3.81       8.04
C      11.95       4.62       4.75
C       5.42      11.45       5.78
C       4.61      -2.73       9.08
C       7.01       5.42       5.78
C       2.73       4.61       9.08
C      13.03       7.01       5.78
C      -4.61       2.73       9.07
C      11.44      13.03       5.78
C      -2.73      -4.61       9.08
C       2.90       2.19       9.08
C       5.82       6.76       4.14
C       2.19      -2.90       9.09
C       6.75      12.64       4.14
C      -2.90      -2.18       9.09
C      12.63      11.70       4.14
C      -2.18       2.90       9.08
C      11.70       5.82       4.14
C       6.32      11.42       4.74
C       3.41      -2.47       9.69
C       7.04       6.33       4.74
C       2.47       3.41       9.69
C      12.13       7.04       4.74
C      -3.40       2.47       9.68
C      11.41      12.13       4.74
C      -2.47      -3.40       9.69
C       3.50       4.65       7.86
C       5.74       4.93       6.25
C       4.65      -3.50       7.86
C       4.92      12.72       6.25
C      -3.50      -4.65       7.86
C      12.72      13.53       6.25
C      -4.65       3.50       7.86
C      13.53       5.74       6.25
C       5.72      13.88       5.96
C       3.49      -4.30       7.58
C       4.58       5.73       5.97
C       4.30       3.49       7.58
C      12.73       4.58       5.97
C      -3.49       4.30       7.58
C      13.88      12.73       5.97
C      -4.30      -3.49       7.58
C       3.53       5.70       6.91
C       5.53       3.70       6.91
C       5.70      -3.52       6.91
C       3.70      12.93       6.91
C      -3.53      12.75       6.91
C      12.93      -3.70       6.91
C      12.75       3.53       6.91
C      -3.70       5.53       6.91
N       4.04       1.00       7.26
N       3.39       6.84       4.02
N       1.00      -4.04       7.26
N       6.84      15.07       4.02
N      -4.04      -0.99       7.26
N      15.07      11.61       4.02
N      -0.99       4.05       7.26
N      11.61       3.39       4.02
N       5.18      10.22       6.56
N       5.84      -2.38       9.81
N       8.23       5.19       6.57
N       2.38       5.84       9.81
N      13.27       8.23       6.57
N      -5.84       2.38       9.81
N      10.22      13.27       6.57
N      -2.38      -5.84       9.81
O       9.23       0.00       6.91
O       0.00       9.23       6.91
O       8.15       0.38       9.93
O       1.08       9.60       3.89
O       0.37      10.31       9.93
O       9.60      -1.08       3.89
O      10.31      -0.37       9.93
O      -1.08       8.85       3.89
O      -0.37       8.15       9.93
O       8.85       1.08       3.89
O      11.96       1.38       7.52
O      -2.68       7.45       5.97
O       1.38       6.49       7.52
O       7.45       2.68       5.97
O       6.49      -1.38       7.52
O       2.68      11.01       5.97
O      -1.38      11.96       7.52
O      11.01      -2.68       5.97
O      -2.74      10.61       6.31
O      11.90      -1.78       7.85
O       7.85      -2.73       6.30
O       1.78      11.90       7.85
O       2.74       7.85       6.30
O       6.55       1.78       7.85
O      10.61       2.74       6.31
O      -1.78       6.55       7.85
O       4.38       1.15       6.08
O       3.83      -0.09       7.81
O       2.47       6.01       4.07
O       3.37       7.90       3.38
O       1.15      14.08       6.08
O      -0.09      -3.83       7.81
O       6.01      -2.47       4.07
O       7.89      15.09       3.38
O      14.07      -1.15       6.08
O      -3.83       0.10       7.80
O      -2.47      12.45       4.07
O      15.08      10.55       3.38
O      -1.14       4.38       6.07
O       0.10       3.83       7.80
O      12.44       2.47       4.07
O      10.55       3.37       3.38
O       4.85      10.37       7.75
O       5.39       9.13       6.02
O       6.76      -3.22       9.76
O       5.86      -1.33      10.44
O       8.08       4.85       7.75
O       9.32       5.40       6.02
O       3.22       6.76       9.76
O       1.33       5.86      10.44
O      -4.85       8.08       7.75
O      13.05       9.32       6.03
O      11.70       3.22       9.76
O      -5.85       1.33      10.44
O      10.37      -4.85       7.75
O       9.13      13.06       6.02
O      -3.22      11.70       9.76
O      -1.33      -5.86      10.44
F       8.15       6.87       4.25
F       1.80       3.29      10.84
F       6.87      10.30       4.24
F       3.30      -1.80      10.84
F      10.30      11.59       4.24
F      -1.80      -3.29      10.84
F      11.59       8.16       4.25
F      -3.29       1.80      10.83
F       1.08      -2.36       9.58
F       7.42      12.53       2.99
F       2.36       1.07       9.58
F       5.93       7.42       2.99
F      -1.07       2.36       9.58
F      11.02       5.94       2.99
F      -2.36      -1.07       9.58
F      12.52      11.03       2.99
