76

Zn       5.98       5.07       9.71
Zn       3.20       5.14       9.63
H       6.81       4.83       5.44
H       2.37       5.38      13.89
H       2.53       5.40       5.35
H       6.65       4.81      13.99
H       6.89      10.04       9.72
H       2.29       0.18       9.62
H       8.32       7.09      10.64
H       0.86       3.12       8.70
H       8.37       4.86       7.45
H       0.81       5.35      11.89
C       4.76       7.71       9.62
C       4.43       2.50       9.71
C       4.63       5.07       7.06
C       4.55       5.14      12.27
C       5.88       4.98       4.89
C       3.30       5.23      14.44
C       5.91       5.02       3.50
C       3.27       5.19      15.83
C       4.74       5.20       2.74
C       4.44       5.01      16.60
C       3.55       5.33       3.45
C       5.63       4.88      15.88
C       3.48       5.28       4.84
C       5.70       4.93      14.50
C       4.67       5.11       5.56
C       4.51       5.10      13.77
C       4.46       4.90      18.07
C       4.72       5.32       1.26
C       5.83      10.27       9.69
C       3.35      -0.06       9.65
C       5.29       0.18      10.77
C       3.89      10.03       8.57
C       4.50       1.01       9.69
C       4.68       9.21       9.64
C       5.31       0.21       8.60
C       3.87      10.00      10.73
C       0.18       6.14       8.95
C       9.00       4.07      10.38
C       8.85       6.22      10.23
C       0.33       3.99       9.10
C       8.88       4.96       8.41
C       0.30       5.26      10.92
N       4.12       4.32       0.58
N       5.07       5.89      18.75
N       3.94       3.77      18.61
N       5.24       6.44       0.73
N       8.02       5.03       9.70
N       1.16       5.18       9.64
N       7.21       4.80       2.84
N       1.97       5.41      16.50
N       5.82       0.77      12.01
N       3.36       9.44       7.33
O       5.90       7.16       9.67
O       3.29       3.05       9.67
O       3.62       7.15       9.58
O       5.57       3.06       9.75
O       5.75       5.07       7.67
O       3.43       5.14      11.66
O       3.48       5.04       7.61
O       5.70       5.17      11.72
O       7.19       4.45       1.65
O       8.23       4.95       3.52
O       1.99       5.76      17.69
O       0.95       5.26      15.82
O       6.96       0.44      12.35
O       5.05       1.52      12.62
O       2.22       9.77       6.98
O       4.13       8.69       6.72
F       2.41       5.54       2.76
F       6.78       4.67      16.57
F       5.86       0.78       7.51
F       3.32       9.43      11.83
F       0.67       7.17       8.25
F       8.51       3.05      11.09
