284

Hf      15.80       1.73       0.13
Hf       1.82       1.64       0.12
Hf      15.72      17.80       0.11
Hf       1.74      17.72       0.10
Hf       0.04      19.50      25.24
Hf       0.02      19.52       2.58
Hf       7.09       7.89      13.93
Hf      10.62       8.01      13.91
Hf       6.96      11.43      13.92
Hf      10.48      11.52      13.92
Hf       8.78       9.71      16.38
Hf       8.78       9.70      11.45
H      17.50       2.71       2.07
H       2.82      19.43      25.74
H       0.05      16.73       2.05
H      14.77      19.51      25.74
H       4.42       1.52      26.98
H       4.01      19.34       0.18
H       1.66      15.15      26.98
H      17.33      15.53       0.08
H      13.20      17.97       0.90
H      13.52       0.15       0.15
H      15.97       4.23      26.96
H       0.23       3.90       0.08
H      15.93      15.11       0.85
H      13.15       1.51      26.91
H       1.63       4.29       0.87
H       4.24      17.99       1.06
H       8.78       6.91      11.98
H      11.58       9.80      15.86
H       8.81      12.50      11.97
H       5.98       9.65      15.86
H      13.22       8.13      14.60
H      12.77       9.94      13.84
H      10.37      14.06      14.61
H       8.55      13.71      13.92
H       4.42      11.32      13.18
H       4.81       9.46      13.87
H       7.23       5.35      14.62
H       9.03       5.73      13.95
H       7.16      14.10      13.12
H       4.58       8.09      13.00
H      10.46       5.34      13.19
H      12.99      11.31      12.97
H       5.49      14.42       4.98
H       4.41      15.71       3.16
H       1.50      17.22       5.92
H       2.49      15.85       7.73
H       3.97      15.50       9.19
H       4.95      14.12      10.99
H       6.61      11.44       8.08
H       5.55      12.75       6.26
H      14.34      16.42       7.75
H      15.41      17.73       5.93
H      13.64      15.14       3.00
H      12.65      13.75       4.80
H      11.17      13.42       6.29
H      10.19      12.05       8.11
H      13.22      13.44      10.82
H      14.29      14.71       8.98
H       3.31       4.57       9.12
H       4.42       5.86      10.92
H       7.23       7.45       8.10
H       6.21       6.08       6.30
H       4.71       5.73       4.89
H       3.74       4.35       3.07
H       2.15       1.62       5.97
H       3.21       2.92       7.80
H       2.54      15.79      20.09
H       1.47      17.10      21.90
H       4.28      15.51      24.73
H       5.43      14.28      22.91
H       4.09      15.51      18.68
H       5.16      14.19      16.87
H       6.70      11.42      19.75
H       5.56      12.66      21.57
H      14.63       3.19      20.05
H      15.73       1.93      21.88
H      13.58       4.24      24.79
H      12.51       5.55      22.98
H      11.05       5.72      21.41
H      10.02       7.06      19.59
H      13.35       6.17      17.02
H      14.46       4.96      18.87
H      14.97      15.93      20.06
H      16.04      17.24      21.88
H      13.32      15.55      24.73
H      12.16      14.32      22.92
H      12.04      12.71      21.56
H      10.89      11.48      19.74
H      12.34      14.33      16.87
H      13.40      15.63      18.69
H      11.97       4.86       4.99
H      13.06       3.57       3.17
H      16.14       2.32       5.88
H      15.14       3.70       7.68
H      13.70       4.02       9.18
H      12.71       5.40      10.98
H      10.76       7.86       8.06
H      11.82       6.56       6.23
H       2.51       3.54      20.07
H       1.46       2.22      21.90
H       4.34       3.75      24.68
H       5.48       4.97      22.85
H       5.57       6.62      21.55
H       6.72       7.87      19.74
H       5.13       5.14      16.83
H       4.06       3.82      18.63
C      15.39       2.23      24.53
C       2.24       2.12       3.32
C       2.18       2.13      24.49
C      15.31       2.08       3.34
C      15.26      17.30       3.28
C       2.15      17.16      24.51
C       2.25      17.34       3.34
C      15.41      17.25      24.50
C       6.68       7.36      17.10
C      11.02       7.50      10.72
C      10.97       7.48      17.11
C       6.54       7.53      10.70
C       6.50      11.91      10.73
C      10.88      12.05      17.11
C      11.00      11.88      10.67
C       6.65      11.95      17.11
C       2.94      15.84       6.74
C       4.07      15.04       6.50
C       4.60      15.01       5.19
C       4.01      15.75       4.17
C       2.90      16.56       4.43
C       2.37      16.60       5.73
C       4.68      14.23       7.58
C       4.52      14.60       8.93
C       5.08      13.84       9.95
C       5.85      12.70       9.65
C       6.02      12.33       8.31
C       5.43      13.08       7.29
C      13.23      14.64       5.06
C      13.42      14.98       6.42
C      14.20      16.11       6.71
C      14.79      16.86       5.70
C      14.59      16.51       4.36
C      13.80      15.40       4.05
C      12.81      14.17       7.49
C      11.65      13.40       7.27
C      11.09      12.64       8.29
C      11.65      12.65       9.57
C      12.79      13.42       9.81
C      13.37      14.15       8.79
C       5.78       6.05       7.30
C       4.67       5.23       7.56
C       4.18       5.18       8.89
C       4.79       5.92       9.90
C       5.88       6.75       9.62
C       6.37       6.81       8.31
C       4.05       4.43       6.49
C       4.18       4.82       5.14
C       3.62       4.06       4.12
C       2.88       2.91       4.41
C       2.73       2.52       5.75
C       3.31       3.26       6.77
C       4.54      14.87      22.68
C       4.07      14.93      21.35
C       2.95      15.74      21.10
C       2.33      16.47      22.11
C       2.81      16.38      23.43
C       3.91      15.56      23.71
C       4.73      14.18      20.27
C       4.63      14.60      18.93
C       5.24      13.88      17.91
C       5.99      12.73      18.20
C       6.12      12.32      19.53
C       5.49      13.02      20.55
C      13.20       4.75      22.72
C      13.49       4.47      21.37
C      14.41       3.45      21.08
C      15.02       2.73      22.10
C      14.73       3.01      23.44
C      13.81       4.02      23.74
C      12.84       5.24      20.28
C      11.58       5.84      20.46
C      10.99       6.58      19.45
C      11.62       6.70      18.20
C      12.86       6.08      18.00
C      13.47       5.38      19.03
C      13.03      14.93      22.68
C      13.47      15.03      21.35
C      14.58      15.86      21.08
C      15.19      16.59      22.09
C      14.75      16.47      23.41
C      13.66      15.63      23.70
C      12.81      14.27      20.27
C      12.08      13.10      20.54
C      11.45      12.39      19.52
C      11.54      12.83      18.19
C      12.27      13.99      17.91
C      12.88      14.71      18.93
C      14.65       3.65       6.71
C      13.46       4.38       6.48
C      12.90       4.33       5.19
C      13.49       3.60       4.17
C      14.66       2.86       4.42
C      15.23       2.89       5.70
C      12.85       5.18       7.56
C      13.08       4.88       8.92
C      12.52       5.63       9.93
C      11.67       6.71       9.63
C      11.42       7.02       8.29
C      12.00       6.27       7.27
C       4.58       4.39      22.64
C       4.08       4.35      21.32
C       2.94       3.57      21.07
C       2.33       2.84      22.09
C       2.83       2.90      23.40
C       3.96       3.70      23.66
C       4.74       5.12      20.24
C       5.50       6.27      20.53
C       6.13       6.98      19.52
C       6.01       6.58      18.18
C       5.24       5.45      17.88
C       4.62       4.72      18.89
O      15.07       2.50      25.74
O      16.21       1.32      24.17
O       2.51       2.44       2.11
O       1.43       1.19       3.67
O       2.53       2.38      25.69
O       1.33       1.24      24.13
O      14.97       2.32       2.13
O      16.20       1.23       3.70
O      16.33       3.79       0.14
O      13.60       1.24       0.13
O       1.31       3.83       0.08
O       3.89       1.20       0.14
O       0.06       1.37      26.66
O       0.02       1.92       1.51
O      14.96      17.01       2.06
O      16.10      18.18       3.64
O       2.46      16.88      25.72
O       1.33      18.07      24.15
O       2.63      17.13       2.14
O       1.33      18.15       3.70
O      15.11      16.97      25.70
O      16.22      18.17      24.13
O      16.25      15.60       0.08
O      13.66      18.34       0.13
O       1.25      15.66       0.15
O       3.93      18.28       0.18
O      17.53      17.52       1.49
O      17.52      18.02      26.66
O      16.07      19.54       1.15
O       2.04      19.44      26.32
O      15.55      19.53      26.32
O       1.50      19.52       1.16
O       6.42       7.05      15.89
O       7.48       8.29      17.47
O      11.31       7.19      11.92
O      10.20       8.41      10.36
O      11.34       7.25      15.91
O      10.11       8.35      17.47
O       6.19       7.31      11.90
O       7.45       8.36      10.34
O       7.61       5.83      13.86
O       4.89       8.40      13.88
O      10.11       5.81      13.97
O      12.68       8.48      13.87
O       8.84       8.23      14.96
O       8.80       7.71      12.53
O       6.20      12.21      11.95
O       7.33      11.01      10.38
O      11.15      12.37      15.90
O      10.09      11.11      17.47
O      11.38      12.10      11.87
O      10.08      11.07      10.32
O       6.37      12.25      15.91
O       7.45      11.02      17.48
O       7.48      13.64      13.92
O       4.91      10.92      13.92
O       9.99      13.59      13.85
O      12.68      11.00      13.85
O       8.76      11.71      12.53
O       8.74      11.17      14.95
O       7.33       9.69      12.88
O      10.80       9.79      15.29
O       6.76       9.65      15.29
O      10.27       9.73      12.86
