464

Zn      12.92       7.46       2.41
Zn      -0.00      -0.00      16.84
Zn      12.91       7.45      36.08
Zn      25.84      14.91      21.65
Zn       0.55       1.75      38.26
Zn      -1.80      -0.40      38.26
Zn       1.24      -1.36      38.25
Zn       1.24       1.36      19.48
Zn       0.55      -1.76      19.48
Zn      -1.80       0.39      19.48
Zn      25.29      13.16       0.24
Zn      27.64      15.31       0.24
Zn      24.60      16.27       0.24
Zn      24.60      13.56      19.01
Zn      25.29      16.67      19.01
Zn      27.64      14.52      19.01
H       9.65       8.18       5.06
H      13.93       4.27       5.06
H      15.18       9.93       5.06
H       2.26      -2.47      14.19
H      -3.27      -0.73      14.19
H       1.01       3.19      14.18
H      16.18       6.73      33.43
H      11.91      10.65      33.43
H      10.65       4.98      33.43
H      23.58      17.38      24.31
H      29.11      15.64      24.31
H      24.83      11.72      24.31
H       7.55       8.95       6.16
H      14.31       2.06       6.16
H      16.90      11.36       6.16
H      16.90      18.47      13.09
H      20.47      -1.50      13.09
H       1.39       5.39      13.09
H      18.28       5.96      32.33
H      11.53      12.85      32.33
H       8.93       3.55      32.33
H       8.94      -3.56      25.40
H       5.37      16.41      25.41
H      24.45       9.52      25.41
H       7.55       7.68       1.35
H      15.42       2.70       1.35
H      15.80      12.00       1.35
H      15.80      17.83      17.90
H      20.46      -0.22      17.89
H       2.50       4.76      17.89
H      18.29       7.24      37.14
H      10.42      12.22      37.14
H      10.04       2.91      37.14
H      10.04      -2.92      20.60
H       5.37      15.13      20.60
H      23.34      10.15      20.60
H       6.02      11.41       3.56
H      12.95      -0.49       3.56
H      19.80      11.46       3.56
H      19.80      18.37      15.69
H      31.86      18.42      15.69
H      25.87       7.95      15.69
H      19.82       3.50      34.94
H      12.89      15.41      34.94
H       6.04       3.45      34.94
H       6.04      -3.46      22.80
H      -6.02      -3.51      22.80
H      -0.03       6.96      22.80
H      28.38       9.10       4.60
H      29.62      20.02       4.60
H      19.54      15.63       4.60
H      19.54      14.20      14.65
H      15.45      -1.64      14.65
H       3.77       9.81      14.65
H      -2.54       5.81      33.90
H      -3.78      -5.11      33.90
H       6.30      -0.72      33.90
H       6.30       0.71      23.84
H      10.39      16.56      23.84
H      22.07       5.10      23.84
H      26.97      10.58       3.15
H      29.04      18.06       3.15
H      21.52      16.11       3.15
H      21.52      13.73      16.10
H      26.97      19.25      16.10
H      29.03      11.77      16.10
H      -1.14       4.33      35.35
H      -3.20      -3.15      35.35
H       4.32      -1.19      35.35
H       4.32       1.19      22.39
H      -1.14      -4.34      22.39
H      -3.20       3.15      22.39
H      30.43      12.93       2.18
H      25.27      19.88       2.19
H      21.83      11.93       2.19
H      21.83      17.90      17.06
H      30.43      16.90      17.06
H      25.26       9.95      17.06
H      -4.60       1.98      36.31
H       0.57      -4.97      36.31
H       4.00       2.98      36.31
H       4.01      -2.99      21.43
H      -4.60      -1.98      21.43
H       0.58       4.96      21.43
H       5.47       6.96       6.24
H      17.07       1.25       6.24
H      16.22      14.16       6.24
H      16.22      15.67      13.00
H      18.39       0.49      13.01
H       4.15       6.20      13.00
H      20.37       7.95      32.25
H       8.77      13.66      32.25
H       9.62       0.75      32.25
H       9.62      -0.76      25.49
H       7.45      14.42      25.49
H      21.68       8.71      25.49
H       5.46       8.50       2.42
H      15.75       0.47       2.42
H      17.56      13.40       2.42
H      17.56      16.43      16.83
H      18.37      -1.05      16.83
H       2.83       6.99      16.83
H      20.38       6.41      36.07
H      10.09      14.44      36.08
H       8.27       1.51      36.08
H       8.28      -1.52      21.66
H       7.47      15.96      21.66
H      23.01       7.93      21.67
H      29.93      11.03       6.62
H      27.17      20.40       6.62
H      20.43      13.32       6.62
H      20.43      16.51      12.63
H      29.93      18.80      12.63
H      27.16       9.43      12.63
H      -4.10       3.88      31.87
H      -1.33      -5.49      31.88
H       5.41       1.59      31.87
H       5.41      -1.60      25.86
H      -4.09      -3.89      25.86
H      -1.33       5.48      25.87
H      29.25      10.59       8.94
H      27.89      20.03       8.93
H      20.39      14.13       8.94
H      20.39      15.70      10.31
H      29.25      19.24      10.31
H      27.88       9.80      10.31
H      -3.42       4.32      29.56
H      -2.05      -5.12      29.56
H       5.45       0.78      29.56
H       5.45      -0.79      28.18
H      -3.42      -4.33      28.18
H      -2.05       5.11      28.18
H       4.74       6.50       8.55
H      17.83       0.85       8.55
H      16.18      15.01       8.55
H      16.18      14.82      10.70
H      17.66       0.95      10.70
H       4.92       6.60      10.70
H      21.09       8.41      29.95
H       8.00      14.06      29.95
H       9.65      -0.10      29.95
H       9.65       0.09      27.79
H       8.18      13.96      27.79
H      20.92       8.31      27.79
C       9.99       7.48       2.45
C      14.37       4.91       2.45
C      14.41       9.99       2.45
C       1.48      -2.53      16.79
C      -2.94      -0.02      16.79
C       1.45       2.55      16.79
C      15.85       7.43      36.04
C      11.47      10.00      36.04
C      11.43       4.92      36.04
C      24.36      17.44      21.70
C      28.78      14.93      21.70
C      24.39      12.36      21.70
C       8.73       7.88       3.14
C      14.65       3.62       3.14
C      15.38      10.88       3.14
C      15.38      18.96      16.11
C      21.65      -0.42      16.11
C       1.73       3.84      16.11
C      17.10       7.03      35.36
C      11.19      11.29      35.36
C      10.45       4.04      35.36
C      10.46      -4.04      22.38
C       4.19      15.34      22.38
C      24.11      11.08      22.38
C       8.72       8.23       4.50
C      14.35       3.43       4.49
C      15.70      10.71       4.50
C      15.69      19.12      14.75
C      21.64      -0.78      14.75
C       1.43       4.02      14.75
C      17.12       6.68      34.00
C      11.49      11.48      34.00
C      10.14       4.20      34.00
C      10.15      -4.21      23.74
C       4.20      15.69      23.74
C      24.41      10.89      23.74
C       7.55       8.67       5.11
C      14.56       2.20       5.11
C      16.66      11.50       5.11
C      16.66      18.33      14.14
C      20.47      -1.22      14.14
C       1.63       5.25      14.14
C      18.28       6.24      33.38
C      11.28      12.71      33.39
C       9.18       3.41      33.39
C       9.18      -3.42      24.35
C       5.37      16.13      24.35
C      24.20       9.66      24.35
C       7.54       7.97       2.40
C      15.17       2.54       2.40
C      16.06      11.86       2.40
C      16.05      17.97      16.85
C      20.45      -0.51      16.84
C       2.25       4.91      16.84
C      18.30       6.95      36.09
C      10.66      12.37      36.09
C       9.78       3.05      36.09
C       9.78      -3.05      21.65
C       5.38      15.42      21.65
C      23.59      10.00      21.65
C       6.37       8.79       4.36
C      15.05       1.12       4.35
C      17.36      12.47       4.36
C      17.35      17.36      14.89
C      19.28      -1.33      14.89
C       2.12       6.34      14.89
C      19.47       6.12      34.13
C      10.79      13.79      34.14
C       8.48       2.44      34.14
C       8.49      -2.45      23.60
C       6.56      16.25      23.60
C      23.71       8.57      23.60
C      30.79      11.24       3.47
C      26.56      21.04       3.47
C      20.18      12.47       3.47
C      20.18      17.36      15.78
C      30.79      18.60      15.78
C      26.56       8.79      15.78
C      -4.95       3.68      35.03
C      -0.72      -6.13      35.02
C       5.65       2.44      35.03
C       5.66      -2.45      22.71
C      -4.95      -3.68      22.71
C      -0.72       6.12      22.71
C      30.21      10.15       4.15
C      27.79      21.08       4.15
C      19.54      13.52       4.15
C      19.54      16.31      15.10
C      17.28      -2.70      15.10
C       1.94       8.75      15.10
C      -4.37       4.76      34.34
C      -1.95      -6.16      34.34
C       6.30       1.39      34.34
C       6.30      -1.40      23.40
C       8.56      17.61      23.40
C      23.90       6.16      23.40
C      28.82       9.93       4.06
C      28.67      19.99       4.06
C      20.04      14.83       4.06
C      20.04      15.01      15.19
C      15.90      -2.48      15.19
C       2.82       9.84      15.19
C      -2.99       4.98      34.44
C      -2.83      -5.08      34.44
C       5.80       0.09      34.44
C       5.80      -0.09      23.30
C       9.94      17.39      23.30
C      23.01       5.07      23.30
C      28.04      10.76       3.26
C      28.34      18.90       3.26
C      21.15      15.09       3.26
C      21.14      14.74      15.99
C      28.04      19.07      15.99
C      28.34      10.93      15.99
C      -2.20       4.15      35.23
C      -2.51      -3.98      35.23
C       4.69      -0.18      35.24
C       4.69       0.17      22.50
C      -2.20      -4.16      22.50
C      -2.50       3.98      22.50
C      30.00      12.08       2.70
C      26.22      19.93       2.70
C      21.31      12.74       2.70
C      21.31      17.10      16.55
C      30.00      17.75      16.55
C      26.22       9.90      16.55
C      -4.16       2.83      35.79
C      -0.39      -5.02      35.79
C       4.53       2.17      35.79
C       4.53      -2.18      21.95
C      -4.16      -2.84      21.94
C      -0.38       5.01      21.94
C      28.62      11.84       2.57
C      27.12      18.86       2.57
C      21.79      14.05       2.57
C      21.79      15.78      16.68
C      28.62      17.99      16.68
C      27.12      10.97      16.68
C      -2.78       3.07      35.92
C      -1.28      -3.95      35.92
C       4.05       0.86      35.92
C       4.05      -0.87      21.82
C      -2.78      -3.08      21.82
C      -1.28       3.94      21.82
C       4.82       9.03       6.26
C      15.61      -0.34       6.26
C      18.33      13.69       6.26
C      18.33      16.14      12.98
C      17.73      -1.57      12.98
C       2.69       7.80      12.98
C      21.02       5.89      32.23
C      10.23      15.25      32.23
C       7.51       1.22      32.23
C       7.51      -1.23      25.51
C       8.10      16.48      25.51
C      23.15       7.11      25.51
C       5.02       7.76       6.84
C      16.61       0.47       6.84
C      17.14      14.15       6.84
C      17.13      15.68      12.41
C      17.94      -0.30      12.41
C       3.69       6.99      12.41
C      20.82       7.15      31.66
C       9.23      14.45      31.66
C       8.70       0.76      31.66
C       8.70      -0.77      26.08
C       7.90      15.21      26.08
C      22.15       7.92      26.08
C       6.37       8.42       3.00
C      15.36       1.31       3.00
C      17.03      12.65       3.00
C      17.03      17.18      16.25
C      19.29      -0.97      16.25
C       2.44       6.15      16.25
C      19.46       6.49      35.49
C      10.48      13.61      35.50
C       8.80       2.27      35.50
C       8.81      -2.27      22.24
C       6.55      15.88      22.24
C      23.40       8.76      22.24
C       4.23      10.03       7.04
C      15.03      -1.36       7.04
C      19.50      13.70       7.04
C      19.50      16.13      12.20
C      30.07      19.80      12.20
C      27.96       8.81      12.20
C      21.61       4.88      31.45
C      10.80      16.27      31.45
C       6.34       1.21      31.45
C       6.34      -1.22      26.29
C      -4.23      -4.89      26.29
C      -2.12       6.10      26.29
C       3.83       9.77       8.35
C      15.46      -1.57       8.35
C      19.47      14.17       8.35
C      19.47      15.66      10.90
C      29.68      20.06      10.90
C      28.38       9.02      10.90
C      22.00       5.14      30.14
C      10.38      16.48      30.15
C       6.37       0.74      30.14
C       6.37      -0.75      27.59
C      -3.84      -5.15      27.59
C      -2.54       5.89      27.59
C       4.01       8.50       8.93
C      16.47      -0.78       8.93
C      18.29      14.66       8.93
C      18.29      15.18      10.31
C      16.92      -1.05      10.31
C       3.55       8.24      10.31
C      21.83       6.41      29.56
C       9.37      15.70      29.56
C       7.55       0.26      29.56
C       7.55      -0.27      28.18
C       8.92      15.96      28.18
C      22.29       6.67      28.18
C       4.62       7.51       8.14
C      17.03       0.24       8.14
C      17.12      14.62       8.14
C      17.12      15.21      11.10
C      17.53      -0.05      11.10
C       4.11       7.22      11.10
C      21.22       7.40      30.35
C       8.81      14.67      30.35
C       8.72       0.29      30.35
C       8.72      -0.30      27.39
C       8.30      14.96      27.39
C      21.73       7.70      27.39
C      27.80      12.72       1.70
C      26.77      17.70       1.70
C      22.97      14.32       1.70
C      22.97      15.51      17.54
C      27.79      17.11      17.54
C      26.76      12.13      17.54
C      -1.96       2.19      36.79
C      -0.93      -2.79      36.79
C       2.87       0.59      36.79
C       2.87      -0.60      20.95
C      -1.96      -2.19      20.95
C      -0.93       2.78      20.95
N       5.18       9.29       4.93
N      15.20      -0.16       4.93
N      18.38      13.24       4.93
N      18.38      16.59      14.32
N      18.10      -1.84      14.32
N       2.28       7.62      14.32
N      20.65       5.62      33.56
N      10.64      15.07      33.57
N       7.45       1.67      33.57
N       7.46      -1.68      24.17
N       7.74      16.75      24.17
N      23.56       7.30      24.17
O      12.92       7.46       0.43
O      -0.00      -0.00      18.81
O      12.92       7.45      38.06
O      25.84      14.91      19.68
O      11.09       7.66       3.09
O      13.67       5.77       3.09
O      14.01       8.95       3.09
O       1.09      -1.49      16.16
O      -1.84      -0.20      16.16
O       0.74       1.69      16.16
O      14.75       7.25      35.41
O      12.17       9.14      35.41
O      11.82       5.96      35.41
O      24.75      16.40      22.33
O      27.68      15.11      22.33
O      25.10      13.22      22.33
O       9.88       7.00       1.27
O      14.84       5.05       1.27
O      14.05      10.33       1.27
O       1.12      -2.87      17.98
O      -3.05       0.46      17.97
O       1.92       2.40      17.97
O      15.96       7.91      37.22
O      10.99       9.86      37.22
O      11.79       4.58      37.22
O      24.72      17.78      20.52
O      28.89      14.45      20.52
O      23.92      12.51      20.52
O      26.62      12.31       1.40
O      27.71      16.89       1.40
O      23.20      15.54       1.40
O      23.20      14.29      17.85
O      26.62      17.52      17.85
O      27.71      12.94      17.85
O      -0.78       2.60      37.10
O      -1.87      -1.98      37.10
O       2.64      -0.63      37.10
O       2.64       0.62      20.64
O      -0.78      -2.61      20.64
O      -1.87       1.97      20.64
O      28.33      13.82       1.33
O      25.55      17.62       1.33
O      23.65      13.31       1.33
O      23.65      16.52      17.92
O      28.33      16.01      17.92
O      25.55      12.21      17.92
O      -2.50       1.09      37.17
O       0.29      -2.70      37.16
O       2.19       1.60      37.17
O       2.19      -1.61      20.58
O      -2.49      -1.10      20.57
O       0.29       2.70      20.57
