138

Cu       0.15      11.77       6.19
Cu       6.21       4.39       1.61
Cu      12.56       2.98       9.41
Cu       6.51      10.36      13.99
Cu      12.85      14.76       7.80
Cu       6.22       7.38      15.60
H       3.48       9.61      10.00
H       5.19      12.93      13.21
H       3.10       0.28       1.94
H       5.14       9.03      11.80
H       3.47      13.65      11.53
H       3.19       2.92       5.36
H       4.73       4.39       4.08
H       4.63       1.88       0.78
H       2.60       2.24      13.40
H       0.89       5.55      10.19
H       3.26       7.65       5.86
H       0.94       1.65      11.60
H       2.61       6.27      11.86
H       3.17      10.30       2.44
H       1.62      11.77       3.72
H       1.72       9.26       7.02
H       9.23       5.14       5.60
H       7.52       1.83       2.39
H       9.62      14.48      13.65
H       7.57       5.72       3.80
H       9.24       1.11       4.06
H       9.52      11.84      10.23
H       7.98      10.36      11.52
H       8.08      12.88      14.82
H      10.11      12.52       2.20
H      11.82       9.21       5.41
H       9.45       7.10       9.74
H      11.77      13.10       4.00
H      10.10       8.48       3.74
H       9.55       4.46      13.16
H      11.09       2.98      11.88
H      10.99       5.50       8.58
C       2.37      12.08       9.62
C       3.34      11.68      10.63
C       3.83      10.37      10.70
C       4.77      12.22      12.49
C       2.11       0.62       4.51
C       3.01       1.48       3.75
C       3.44       1.18       2.45
C       4.75      10.04      11.68
C       3.82      12.62      11.56
C       3.49       2.66       4.35
C       4.36       3.47       3.64
C       4.31       2.05       1.80
C       3.71       4.71      13.77
C       2.75       4.31      12.76
C       2.26       2.99      12.69
C       1.31       4.84      10.91
C       4.25       8.00       3.29
C       3.35       8.86       4.05
C       2.92       8.56       5.35
C       1.33       2.67      11.71
C       2.26       5.24      11.84
C       2.87      10.04       3.45
C       2.00      10.85       4.16
C       2.05       9.43       5.99
C      10.34       2.67       5.97
C       9.38       3.07       4.96
C       8.89       4.39       4.89
C       7.94       2.54       3.11
C      10.60      14.13      11.09
C       9.70      13.28      11.85
C       9.27      13.58      13.15
C       7.96       4.71       3.91
C       8.89       2.14       4.04
C       9.23      12.10      11.25
C       8.35      11.29      11.96
C       8.40      12.70      13.79
C       9.00      10.05       1.82
C       9.97      10.45       2.83
C      10.46      11.76       2.91
C      11.40       9.91       4.69
C       8.47       6.75      12.31
C       9.37       5.90      11.55
C       9.80       6.20      10.25
C      11.38      12.09       3.88
C      10.45       9.51       3.76
C       9.84       4.72      12.15
C      10.71       3.91      11.44
C      10.66       5.32       9.60
N       1.05      13.28       8.51
N       1.10      12.07       7.94
N       1.92      11.29       8.62
N       1.83      13.32       9.56
N       5.23      10.96      12.55
N       0.99      13.73       5.24
N       0.86       0.00       6.08
N       1.54       1.05       5.66
N       1.78      14.10       4.23
N      11.62      12.90       6.90
N      10.61      12.37       7.28
N       4.77       3.18       2.39
N       9.60      11.89       7.64
N       5.03       5.90      14.89
N       4.98       4.69      15.46
N       4.16       3.91      14.78
N       4.25       5.95      13.83
N       0.86       3.58      10.84
N       5.37       6.35       2.56
N       5.50       7.38       1.72
N       4.82       8.43       2.14
N       4.58       6.72       3.57
N       7.72       5.52       0.90
N       8.74       4.99       0.52
N       1.59      10.56       5.41
N       9.74       4.51       0.16
N      11.66       1.47       7.09
N      11.61       2.68       7.66
N      10.79       3.46       6.98
N      10.88       1.43       6.04
N       7.49       3.80       3.04
N      11.72       1.03      10.36
N      11.86      14.75       9.52
N      11.17      13.71       9.94
N      10.94       0.66      11.37
N       1.09       1.85       8.70
N       2.11       2.39       8.32
N       7.94      11.58      13.21
N       3.11       2.87       7.96
N       7.68       8.85       0.71
N       7.73      10.06       0.14
N       8.55      10.84       0.82
N       8.46       8.81       1.76
N      11.86      11.18       4.76
N       7.34       8.41      13.04
N       7.21       7.37      13.87
N       7.89       6.33      13.46
N       8.13       8.04      12.03
N       4.99       9.23      14.70
N       3.97       9.77      15.08
N      11.12       4.20      10.19
N       2.97      10.25      15.44
