132

Mg       4.27      14.71       7.31
Mg       2.82      -0.65      16.96
Mg       2.01      14.22       9.09
Mg      -1.69      -0.40      15.13
Mg      -0.24      12.93       7.77
Mg       0.57       1.06      16.26
H       2.39      17.86       9.71
H      -0.33      -4.46      13.85
H       0.71      -2.85      12.36
H       2.14      -4.65      11.51
H       0.92      19.26       9.62
H       2.40      -6.54      11.81
H      -2.06      20.11      12.98
H      -0.65      -5.61      15.16
H       0.67      -5.91      14.00
H       4.75      -4.07      14.92
H       0.72      18.03      10.88
H      -0.34      19.46      10.85
H      -1.78      18.13      13.16
H      -0.37      16.37      12.17
H       0.14      10.58      10.62
H       1.92       4.19      13.39
H       2.96       4.68      15.52
H      -2.37       6.32      14.39
H      -1.34       9.95      11.87
H      -2.11       7.01      12.60
H       2.46       6.62      10.93
H       1.61       3.64      11.73
H       2.92       4.79      12.05
H       0.23       3.08      13.18
H      -1.53       9.47      10.18
H       4.18       8.79      11.43
H       2.73       7.45       9.13
H       4.14       9.19       8.10
H       4.66      13.42       3.85
H      -2.59       0.27      21.11
H      -1.55      -1.82      20.47
H      -0.11      -1.66      22.45
H       3.18      12.65       2.68
H       0.15      -0.46      23.94
H       0.20      15.14       0.27
H      -2.90       1.98      21.46
H      -1.59       1.13      22.29
H       2.49       1.01      20.25
H       2.98      14.35       3.11
H       1.92      13.61       1.90
H       0.48      16.28       1.89
H       1.88      16.30       3.91
C       1.93      -2.40      14.06
C       1.62      -3.13      12.90
C       2.41      -4.16      12.44
C       0.92      -1.50      14.62
C       3.92      16.41       9.83
C       3.24      17.54      10.31
C       3.61      18.23      11.47
C       2.96      19.49      11.91
C       1.64      19.89      11.56
C       3.44      -6.79      12.05
C       4.18      -5.89      12.84
C      -1.29      -6.30      13.21
C      -3.08      20.37      12.73
C      -0.36      -5.52      14.10
C       3.52      -4.61      13.21
C       3.89      -3.82      14.30
C       3.19      -2.66      14.69
C       0.69      19.11      10.69
C      -2.06      17.70      12.20
C      -1.28      16.69      11.66
C      -1.60      16.07      10.44
C      -0.61      15.22       9.78
C       4.19       2.98      15.06
C       3.88       4.36      15.02
C      -2.10       5.27      14.35
C       3.18       2.05      15.57
C       1.66      11.19       9.30
C       0.98      10.21      10.04
C       1.36       8.86      10.06
C       0.70       7.85      10.93
C      -0.62       7.96      11.45
C      -1.08       6.92      12.26
C      -0.34       5.79      12.65
C       0.97       5.67      12.11
C       1.43       6.71      11.29
C       1.90       4.52      12.34
C      -1.00       4.83      13.57
C      -0.62       3.49      13.71
C      -1.32       2.57      14.52
C      -1.56       9.10      11.21
C       2.46       8.50       9.24
C       3.23       9.46       8.63
C       2.91      10.84       8.70
C       3.91      11.84       8.29
C      -0.32      -0.57      19.23
C      -0.64      -1.22      20.44
C       0.15      -1.10      21.56
C      -1.33      -0.54      18.16
C      -0.59      14.26       5.04
C      -1.28      14.11       3.82
C      -0.90      14.77       2.65
C       5.22      14.52       1.34
C       3.90      14.01       1.17
C       1.18      -0.12      24.04
C       1.92       0.12      22.87
C       3.23       0.64      23.04
C      -0.82      14.78       0.16
C      -2.61       1.02      21.92
C       1.26      -0.21      21.57
C       1.64       0.35      20.34
C       0.93       0.10      19.14
C       2.95      13.65       2.28
C       0.20      15.66       2.74
C       0.97      15.70       3.88
C       0.66      14.95       5.03
C       1.65      14.81       6.10
O       3.36      15.73       8.81
O      -0.26      -1.46      14.15
O       1.23      -0.78      15.66
O       0.58      15.12      10.23
O      -0.94      14.61       8.68
O       3.74      -1.88      15.63
O       1.11      12.42       9.21
O       2.00       2.44      15.84
O       3.49       0.79      15.67
O      -1.67      11.49       7.99
O       3.57      13.09       8.31
O      -0.77       1.36      14.73
O      -1.15      13.72       6.14
O       4.25      -0.97      18.37
O      -1.02       0.00      17.02
O       2.84      15.25       5.96
O       1.31      14.17       7.18
O       1.49       0.52      17.99
