273

Zn      12.31       0.00      24.78
Zn       2.94       5.10       8.26
Zn      -6.15      10.66      16.52
Zn       4.50      14.85       2.67
Zn       1.51       4.43      10.93
Zn      -6.01      12.23      19.19
Zn      13.60       0.91      22.11
Zn       3.08       3.52       5.59
Zn      10.61      11.33      13.85
H       8.97       1.85      23.74
H       6.21       7.06       7.22
H      12.11       6.85      15.48
H      -0.12      13.91       1.04
H       3.01       8.91       9.30
H      -2.88       8.70      17.56
H      10.59       2.24      23.05
H       5.74       5.47       6.53
H      10.96       8.05      14.79
H       1.49      13.52       1.73
H       1.87       7.70       9.99
H      -3.36      10.29      18.25
H       9.84       3.35      24.24
H       7.08       5.56       7.72
H      10.37       6.85      15.98
H       0.75      12.41       0.54
H       1.27       8.91       8.80
H      -2.02      10.20      17.06
H       8.32       2.65       1.11
H       7.23       7.22       9.37
H      11.74       5.88      17.63
H      -0.77      13.11      23.67
H       2.64       9.87       7.15
H      -1.87       8.53      15.41
H       9.10       1.49       5.19
H       5.83       7.13      13.45
H      12.36       7.14      21.71
H       0.00      14.27      19.59
H       3.26       8.62       3.07
H      -3.26       8.62      11.33
H      11.24       0.41       4.48
H       3.83       5.82      12.74
H      12.22       9.53      21.00
H       2.14      15.35      20.30
H       3.12       6.23       3.78
H      -5.27       9.94      12.04
H       7.08       2.65       4.70
H       7.85       8.31      12.96
H      12.37       4.80      21.22
H      -2.02      13.11      20.08
H       3.27      10.95       3.56
H      -1.25       7.45      11.82
H       6.21       2.64       1.75
H       8.28       9.06      10.01
H      12.81       4.06      18.27
H      -2.89      13.12      23.03
H       3.71      11.70       6.51
H      -0.82       6.69      14.77
H       3.94       2.74       1.50
H       9.50      10.98       9.76
H      13.85       2.04      18.02
H      -5.16      13.02      23.28
H       4.75      13.72       6.76
H       0.41       4.78      15.02
H       1.73       2.52       0.86
H      10.42      13.00       9.12
H      15.15       0.24      17.38
H      -7.37      13.24      23.92
H       6.05      15.52       7.40
H       1.32       2.76      15.66
H      -0.20       3.09       3.18
H      -6.32      14.38      11.44
H       6.52      14.04      19.70
H       8.90      12.67      21.60
H      15.62       1.72       5.08
H       2.78       1.38      13.34
H      15.74       2.96       2.96
H       3.79       0.65      11.22
H       7.77      12.15      19.48
H       6.64      12.80      21.82
H      -1.33       3.61       5.30
H      -5.31      15.11      13.56
H      13.68       2.32       1.71
H       4.27       2.75       9.97
H       9.35      10.69      18.23
H       4.58      13.44      23.06
H       0.25       5.07       6.54
H      -4.83      13.01      14.80
H      -0.06       1.93      24.30
H      -7.40      14.84       7.78
H       7.46      14.75      16.04
H       9.04      13.83       0.48
H      16.56       1.01       8.74
H       1.70       0.92      17.00
H      -0.41       1.90      22.01
H      -7.25      15.16       5.49
H       7.66      14.45      13.75
H       8.69      13.86       2.77
H      16.76       1.31      11.03
H       1.85       0.59      19.29
H      16.88       0.64      21.10
H       1.22       0.82       4.58
H       9.20      14.30      12.84
H       7.78      15.11       3.68
H       0.10       1.46      11.94
H      -7.88      14.94      20.20
H      17.75       0.19      22.60
H       0.39       0.29       6.08
H       9.16      15.28      14.34
H       8.65      15.57       2.18
H       0.06       0.48      10.44
H      -8.71      15.47      18.70
C       9.96       2.30      23.94
C       6.11       5.98       7.42
C      11.23       7.48      15.68
C       0.86      13.46       0.84
C       2.13       8.28       9.10
C      -2.99       9.78      17.36
C      10.98       0.89       2.41
C       4.38       5.80      10.67
C      11.93       9.06      18.93
C       1.88      14.87      22.37
C       2.84       6.70       5.85
C      -4.72       9.95      14.11
C      10.15       1.57       1.47
C       5.38       6.19       9.73
C      11.76       8.00      17.99
C       1.05      14.19      23.31
C       2.66       7.76       6.79
C      -3.71       9.57      15.05
C       8.95       2.15       1.85
C       6.48       6.93      10.11
C      11.86       6.68      18.37
C      -0.15      13.61      22.93
C       2.76       9.08       6.41
C      -2.62       8.83      14.67
C       8.54       2.10       3.20
C       6.65       7.31      11.46
C      12.11       6.35      19.72
C      -0.56      13.66      21.58
C       3.01       9.41       5.06
C      -2.45       8.45      13.32
C       9.40       1.51       4.14
C       5.70       6.86      12.40
C      12.19       7.39      20.66
C       0.30      14.25      20.64
C       3.09       8.37       4.12
C      -3.40       8.90      12.38
C      10.59       0.90       3.75
C       4.58       6.13      12.01
C      12.12       8.73      20.27
C       1.50      14.86      21.02
C       3.02       7.03       4.50
C      -4.52       9.63      12.76
C       7.24       2.56       3.62
C       7.70       8.21      11.88
C      12.36       4.99      20.14
C      -1.86      13.20      21.16
C       3.27      10.77       4.64
C      -1.40       7.55      12.90
C       6.16       2.79       2.83
C       8.43       9.03      11.09
C      12.71       3.94      19.35
C      -2.94      12.97      21.95
C       3.61      11.82       5.43
C      -0.67       6.72      13.69
C       4.85       3.09       3.40
C       9.35      10.02      11.66
C      13.10       2.65      19.92
C      -4.25      12.67      21.38
C       4.00      13.11       4.86
C       0.25       5.74      13.12
C       3.72       2.99       2.54
C       9.82      11.04      10.80
C      13.75       1.73      19.06
C      -5.37      12.77      22.24
C       4.65      14.03       5.72
C       0.72       4.72      13.98
C       2.36       3.06       2.88
C      10.57      12.19      11.14
C      14.37       0.51      19.40
C      -6.74      12.70      21.90
C       5.27      15.25       5.38
C       1.47       3.57      13.64
C       1.36       2.78       1.85
C      -7.37      13.19      10.11
C       6.01      15.55      18.37
C      10.46      12.98      22.93
C      15.11       0.21       6.41
C       1.73       2.57      14.67
C       0.04       2.81       2.15
C      -6.69      14.32      10.41
C       6.65      14.39      18.67
C       9.13      12.95      22.63
C      15.75       1.37       6.11
C       2.41       1.43      14.37
C      -1.11       2.49       1.34
C      -6.39      15.48       9.60
C       7.50      13.55      17.86
C       7.99      13.27      23.44
C      16.60       2.21       6.92
C       2.71       0.28      15.18
C      15.81       2.60       1.93
C       3.44       0.77      10.19
C       8.04      12.40      18.45
C       6.71      13.16      22.85
C      -1.06       3.36       6.33
C      -5.66      14.99      14.59
C      14.66       2.25       1.24
C       3.72       1.94       9.50
C       8.92      11.57      17.76
C       5.56      13.51      23.54
C      -0.18       4.19       7.02
C      -5.38      13.82      15.28
C      14.73       1.78      24.71
C       3.27       2.11       8.19
C       9.29      11.87      16.45
C       5.64      13.98       0.07
C       0.19       3.89       8.33
C      -5.83      13.65      16.59
C      16.01       1.69      24.08
C       2.56       1.04       7.56
C       8.72      13.02      15.82
C       6.92      14.06       0.70
C      -0.38       2.74       8.96
C      -6.54      14.72      17.22
C      -1.03       2.03      24.78
C      -6.83      15.64       8.26
C       7.86      13.85      16.52
C       8.07      13.73       0.00
C      16.95       1.91       8.26
C       2.27       0.12      16.52
C      17.18       0.98      22.09
C       1.36       0.39       5.57
C       8.75      14.39      13.83
C       8.08      14.77       2.69
C      -0.34       1.37      10.95
C      -7.74      15.37      19.21
O      10.65       1.57       0.18
O       5.13       5.75       8.44
O      11.51       8.44      16.70
O       1.55      14.19      24.60
O       2.42       7.32       8.08
O      -3.97      10.01      16.34
O      12.08       0.29       1.96
O       3.31       5.15      10.22
O      11.91      10.32      18.48
O       2.98      15.47      22.82
O       2.81       5.44       6.30
O      -5.79      10.61      14.56
O       4.80       3.37       4.66
O       9.62       9.92      12.92
O      12.88       2.47      21.18
O      -4.30      12.39      20.12
O       3.78      13.29       3.60
O       0.52       5.84      11.86
O       1.90       3.33       4.07
O      -7.16      12.45      12.33
O       5.26      15.74      20.59
O      11.00      12.43      20.71
O      14.36       0.02       4.19
O       1.94       3.31      12.45
O      13.65       1.38      24.03
O       3.47       3.25       7.51
O      10.18      11.13      15.77
O       4.55      14.38       0.75
O       1.08       4.63       9.01
O      -5.63      12.51      17.27
O      15.96       1.24      22.79
O       2.20       1.32       6.27
O       9.14      13.20      14.53
O       6.86      14.52       1.99
O       0.04       2.56      10.25
O      -6.90      14.44      18.51
