140

Co       9.85       3.07       6.85
Co       8.41       3.07       0.00
Co       2.32       9.21       6.85
Co       3.76       9.21       0.00
H       6.51       6.38       5.76
H       6.51      12.04       7.95
H      11.76      12.04      12.62
H      11.76       6.38       1.09
H       5.67       5.90       7.95
H       5.67       0.24       5.76
H       0.42       0.24       1.09
H       0.42       5.90      12.62
H       8.10       5.23       3.37
H       8.10       0.91      10.34
H      10.16       0.91      10.23
H      10.16       5.23       3.48
H       4.08       7.05      10.34
H       4.08      11.37       3.37
H       2.01      11.37       3.48
H       2.01       7.05      10.23
H       7.78       6.30       1.26
H       7.78      12.12      12.45
H      10.48      12.12       8.11
H      10.48       6.30       5.59
H       4.39       5.98      12.45
H       4.39       0.16       1.26
H       1.70       0.16       5.59
H       1.70       5.98       8.11
H       6.38       7.71      13.45
H       6.38      10.72       0.26
H      11.88      10.72       6.60
H      11.88       7.71       7.11
H       5.80       4.58       0.26
H       5.80       1.56      13.45
H       0.29       1.56       7.11
H       0.29       4.58       6.60
H       3.83       8.75       2.83
H       3.83       9.67      10.88
H       2.25       9.67       9.68
H       2.25       8.75       4.02
H       8.34       3.53      10.88
H       8.34       2.61       2.83
H       9.92       2.61       4.02
H       9.92       3.53       9.68
H       5.11       7.42       4.49
H       5.11      11.00       9.22
H       0.97      11.00      11.34
H       0.97       7.42       2.36
H       7.06       4.86       9.22
H       7.06       1.28       4.49
H      11.20       1.28       2.36
H      11.20       4.86      11.34
C       8.07       4.90       6.07
C       8.07       1.24       7.64
C      10.19       1.24      12.92
C      10.19       4.90       0.79
C       4.10       7.38       7.64
C       4.10      11.04       6.07
C       1.99      11.04       0.79
C       1.99       7.38      12.92
C       7.24       5.78       5.22
C       7.24       0.36       8.49
C      11.02       0.36      12.08
C      11.02       5.78       1.63
C       4.93       6.50       8.49
C       4.93      11.92       5.22
C       1.15      11.92       1.63
C       1.15       6.50      12.08
C       7.36       5.85       3.88
C       7.36       0.29       9.83
C      10.90       0.29      10.73
C      10.90       5.85       2.98
C       4.82       6.43       9.83
C       4.82      11.99       3.88
C       1.27      11.99       2.98
C       1.27       6.43      10.73
C       6.56       6.71       3.01
C       6.56      11.71      10.70
C      11.70      11.71       9.86
C      11.70       6.71       3.85
C       5.61       5.57      10.70
C       5.61       0.57       3.01
C       0.48       0.57       3.85
C       0.48       5.57       9.86
C       6.91       6.83       1.65
C       6.91      11.59      12.06
C      11.35      11.59       8.50
C      11.35       6.83       5.21
C       5.26       5.45      12.06
C       5.26       0.69       1.65
C       0.83       0.69       5.21
C       0.83       5.45       8.50
C       6.14       7.61       0.80
C       6.14      10.82      12.91
C      12.13      10.82       7.65
C      12.13       7.61       6.05
C       6.04       4.68      12.91
C       6.04       1.47       0.80
C       0.05       1.47       6.05
C       0.05       4.68       7.65
C       4.71       8.18       2.54
C       4.71      10.24      11.17
C       1.38      10.24       9.39
C       1.38       8.18       4.32
C       7.46       4.10      11.17
C       7.46       2.04       2.54
C      10.80       2.04       4.32
C      10.80       4.10       9.39
C       5.44       7.44       3.45
C       5.44      10.98      10.26
C       0.65      10.98      10.30
C       0.65       7.44       3.40
C       6.73       4.84      10.26
C       6.73       1.30       3.45
C      11.53       1.30       3.40
C      11.53       4.84      10.30
N       5.03       8.25       1.22
N       5.03      10.17      12.49
N       1.06      10.17       8.08
N       1.06       8.25       5.63
N       7.15       4.03      12.49
N       7.15       2.11       1.22
N      11.11       2.11       5.63
N      11.11       4.03       8.08
O       9.02       4.21       5.49
O       9.02       1.93       8.22
O       9.24       1.93      12.34
O       9.24       4.21       1.36
O       3.15       8.07       8.22
O       3.15      10.35       5.49
O       2.94      10.35       1.36
O       2.94       8.07      12.34
O       7.87       4.83       7.30
O       7.87       1.31       6.41
O      10.39       1.31       0.45
O      10.39       4.83      13.26
O       4.30       7.45       6.41
O       4.30      10.97       7.30
O       1.78      10.97      13.26
O       1.78       7.45       0.45
