99

Cu      11.17      13.41      11.17
Cu      11.17      11.15      13.41
Cu      13.46      11.20      11.20
Cu       3.75       1.50      11.18
Cu       3.73       3.72      13.46
Cu       1.52       3.77      11.17
Cu      11.17       1.50       3.74
Cu      11.20       3.71       1.46
Cu      13.40       3.77       3.76
Cu       3.74      13.42       3.74
Cu       3.76      11.15       1.52
Cu       1.47      11.20       3.73
H       8.82       0.34      12.22
H       8.83      12.20       0.36
H       0.41      12.27       8.87
H      12.20       0.35       8.81
H      12.19       8.76       0.32
H       0.43       8.90      12.28
H       6.10      14.55      12.22
H       6.07       2.66       0.39
H      14.57       2.72       8.83
H       2.69      14.56       8.83
H       2.65       6.02       0.43
H      14.62       6.16      12.19
H       8.81      14.56       2.71
H       8.87       2.65      14.51
H       0.35       2.73       6.10
H      12.23      14.56       6.09
H      12.29       6.01      14.49
H       0.30       6.16       2.75
H       6.09       0.36       2.69
H       6.10      12.19      14.57
H      14.53      12.26       6.07
H       2.70       0.37       6.10
H       2.74       8.76      14.61
H      14.50       8.90       2.65
C       8.98      14.39      12.84
C       8.38      14.04      14.06
C       8.99      12.83      14.41
C      14.44      12.88       9.01
C      14.07      14.08       8.38
C      12.85      14.41       8.98
C      12.84       8.96      14.39
C      14.07       8.38      14.06
C      14.45       9.02      12.88
C       5.94       0.50      12.85
C       6.54       0.84      14.07
C       5.92       2.04      14.43
C       0.52       2.09       8.99
C       0.86       0.88       8.38
C       2.07       0.52       8.99
C       2.05       5.90      14.45
C       0.87       6.54      14.07
C       0.55       5.97      12.84
C       8.98       0.50       2.07
C       8.38       0.84       0.85
C       9.01       2.04       0.48
C      14.40       2.10       5.94
C      14.05       0.88       6.55
C      12.85       0.52       5.93
C      12.88       5.89       0.47
C      14.06       6.54       0.86
C      14.38       5.97       2.09
C       5.94      14.40       2.07
C       6.55      14.04       0.86
C       5.94      12.82       0.52
C       0.49      12.88       5.92
C       0.85      14.08       6.54
C       2.07      14.42       5.93
C       2.09       8.95       0.54
C       0.86       8.38       0.87
C       0.48       9.02       2.05
C       0.01       7.46       0.00
C       7.46      14.90      14.92
C      14.92       0.02       7.46
N       9.89      12.48      13.46
N       9.89      13.45      12.49
N      12.51      13.48       9.90
N      13.50      12.53       9.92
N      13.51       9.92      12.52
N      12.51       9.88      13.46
N       5.01       2.39      13.50
N       5.02       1.43      12.52
N       2.43       1.46       9.89
N       1.46       2.44       9.89
N       1.47       5.04      12.50
N       2.41       5.00      13.51
N       9.92       2.39       1.41
N       9.90       1.44       2.40
N      12.49       1.46       5.03
N      13.45       2.44       5.04
N      13.45       5.04       2.42
N      12.52       5.00       1.42
N       5.03      12.48       1.46
N       5.03      13.46       2.42
N       2.40      13.49       5.01
N       1.42      12.53       5.01
N       1.42       9.92       2.41
N       2.43       9.88       1.47
