54

Zn       4.10       5.21       7.84
Zn       1.50       5.54       7.18
H       1.72       5.47       2.95
H       1.22       0.95       7.20
H       6.56       6.09       6.69
H      -0.95       4.64       8.29
H       3.87       5.29      12.07
H       5.93       5.48       3.79
H      -0.33       5.26      11.23
H       4.69       5.24      14.41
H       0.91       5.51       0.61
H       1.33       9.82       7.39
H       4.24       0.94       7.80
H       4.36       9.81       7.93
C       2.38       2.80       7.41
C       7.00       5.45       7.45
C       2.11       5.33      10.06
C       3.49       5.43       4.96
C       2.75       5.49       2.58
C       2.85       5.27      12.44
C       3.80       5.48       3.50
C       1.80       5.28      11.52
C       5.13       5.51       3.05
C       0.47       5.25      11.97
C       5.43       5.56       1.68
C       3.22       7.95       7.67
C       0.17       5.19      13.33
C       4.35       5.57       0.73
C       1.24       5.18      14.29
C       3.00       5.54       1.20
C       2.59       5.22      13.82
C       6.77       5.60       1.16
C      -1.17       5.15      13.86
C       3.66       5.21      14.77
C       1.94       5.54       0.24
C       2.22       1.33       7.40
C       3.36       9.43       7.74
C       3.26       0.49       7.61
C       2.31      10.26       7.57
C      -1.40       5.30       7.53
N      -0.52       5.89       6.79
N       6.13       4.86       8.21
Cl       8.11       5.59       2.28
Cl      -2.51       5.15      12.74
Cl       6.65       3.81       9.44
Cl      -1.03       6.96       5.56
O       3.54       3.27       7.64
O       2.05       7.48       7.43
O       1.32       3.49       7.18
O       4.28       7.27       7.85
O       3.34       5.28       9.73
O       2.26       5.50       5.29
O       1.13       5.41       9.24
O       4.46       5.32       5.78
