160

Zn       4.64       0.83       8.17
Zn       2.99       3.61       8.22
Zn       4.61       2.73       5.63
Zn       6.20       3.64       8.25
Zn      -4.55      -0.77      14.40
Zn      -4.58       8.08       1.93
Zn      -3.00      -3.58      14.45
Zn      12.17      -3.50      14.46
H       2.82      -1.87      12.74
H       3.45       0.54      12.85
H       8.98       5.29       1.36
H      12.23       5.96       5.57
H      11.32       7.49       5.64
H      10.49       4.87       7.05
H       9.60       6.41       7.14
H       2.54       7.52       9.99
H      11.71      -6.46      11.49
H      16.98      -7.18      12.17
H      16.36      -8.03      13.61
H      -2.84       2.15       9.85
H       5.76       1.25      12.30
H       6.99       5.83      12.24
H       2.04       4.41       2.80
H       0.32       5.47       1.35
H      -0.44       6.22       7.16
H      -1.27       4.64       6.99
H       1.56      -1.44       9.94
H      -0.21      -2.50      11.34
H      -2.29       2.33      12.41
H       6.84      -2.85      11.53
H      -3.42      -0.27       9.76
H      -1.10       2.19      13.73
H      -0.53       3.40      10.94
H       0.65       3.28      12.27
H       4.53      -3.57      12.09
H       8.71      -1.70      12.98
H       9.69       1.87       9.71
H      11.51       3.04      11.16
H      -4.57       3.81      10.56
H      -6.72      12.50       0.75
H      -6.48       3.14      14.60
H      12.67      -1.03      10.36
H      -7.19      14.21       1.05
H       7.20      -3.14       6.28
H       8.93       4.93      11.43
H       9.69       6.50      11.86
H       9.85       5.85      10.20
H      -2.30       7.50       7.83
H      -3.88       7.68       7.00
H      -2.73       9.06       7.07
H      -3.23       4.67       5.56
H       4.15      -0.29       2.76
H      -4.59      10.37       5.42
H      -2.88      10.70       5.06
H       4.50      -3.60       6.97
H       7.25       4.26       2.83
C       4.51       5.68       9.58
C       7.85      -0.34      11.56
C      12.26       2.31      10.85
C       4.67      -0.21       5.42
C      -4.82       2.74      10.51
C      -3.85       1.82      10.11
C      -4.17       0.46      10.06
C      12.92       0.03      10.41
C      11.93       0.95      10.81
C       4.94      -2.70       5.00
C       4.68      -1.40       4.54
C       6.10      -2.11      11.84
C       4.36      -1.28       3.18
C      -4.85      13.58       2.31
C      -4.60      12.26       2.79
C       2.12       1.20       9.64
C      -4.26      12.17       4.14
C      -3.87      11.17       5.20
C       5.29      -3.56       6.21
C       9.39       5.37       5.19
C       8.25       4.76       4.67
C       8.13       4.74       3.27
C       4.80      -2.51      12.14
C       9.10       5.31       2.44
C      10.24       5.95       2.97
C      10.36       5.96       4.36
C      11.22       6.40       5.53
C       7.20       4.17       5.53
C      10.14       5.73       6.46
C       5.67       7.23      11.19
C       4.54       6.90      10.44
C       3.43       7.75      10.56
C      12.58      -7.11      11.41
C       3.84      -1.56      12.51
C      13.72      -6.79      12.18
C      14.83      -7.62      12.04
C      16.24      -7.89      12.53
C       7.04       6.75      11.63
C      -0.19       5.31       5.16
C       2.01       4.12       5.50
C       0.97       4.75       4.64
C       1.14       4.83       3.24
C       0.18       5.43       2.43
C      -1.00       6.00       2.96
C       8.92      -0.93      12.24
C      -1.14       5.92       4.35
C      -2.06       6.25       5.54
C      -0.94       5.54       6.45
C       0.21       1.34      11.29
C       1.07       0.58      10.50
C       0.90      -0.82      10.54
C       7.13       1.29       9.73
C      -0.09      -1.41      11.33
C      -0.96      -0.64      12.13
C      -0.77       0.75      12.09
C      10.24      -0.52      12.05
C      -1.25       2.07      12.65
C      -0.15       2.74      11.74
C      11.25       6.58       2.09
C      -2.02      -1.25      12.97
C      -4.61      11.03       1.95
C      13.73      -5.60      13.08
C      -2.02       6.62       2.07
C       4.19      -0.21      12.56
C      11.27      -1.14      12.94
C       5.49       0.19      12.25
C      10.55       0.51      11.14
C       6.46      -0.76      11.87
C      -6.46      13.55       0.56
C       9.18       5.94      11.06
C      -2.82       7.97       6.98
C       9.49       1.09      10.45
C       8.16       0.68      10.63
O       4.61       2.71       7.58
O      14.87      -5.27      13.57
O      -3.02       7.14       2.65
O       5.61       5.05       9.46
O      11.07      -2.35      13.30
O      -1.80       6.56       0.81
O      12.24      -0.40      13.30
O      -4.65      11.16       0.68
O      12.62      -5.01      13.28
O      12.19       7.22       2.66
O      -2.00      -2.52      13.12
O       2.96       0.42       9.09
O       4.79      -0.43       6.67
O       2.08       2.47       9.53
O       6.23       3.58       4.93
O       1.76       4.04       6.75
O       7.32       2.51       9.40
O       3.07       3.71       4.91
O       6.20       0.52       9.32
O      -5.13      13.87       1.00
O       6.49      -3.32       6.92
O       8.00       6.61      10.61
O       7.34       4.30       6.79
O      -2.22       7.62       5.73
O      -3.34       5.64       5.56
O       3.39       5.35       9.06
O       4.53       0.93       4.86
O      13.79      -2.60      15.09
O      11.09       6.43       0.82
O      -2.86      -0.44      13.47
O      -4.54       9.93       2.59
