112

Zn       2.74      -0.43      12.14
Zn       6.14       8.28       0.00
Zn       2.48       2.29      10.35
Zn       6.38       5.55       1.79
H      11.29       5.65       2.00
H       3.95      -0.82       3.42
H       9.18       3.55       8.72
H       6.95       2.37       6.97
H       5.51       1.16       5.17
H       7.70       3.99       6.76
H       3.78       0.71       5.38
H       1.51      -2.52      10.13
H      -2.11      -4.10      11.17
H      13.49       8.93       0.97
H       2.97       8.09       9.90
H       0.60       6.13       2.24
H       7.73      10.36       1.92
H      -2.48       1.84      10.23
H       3.27       5.41       9.28
H       3.18       5.34       2.85
H       6.93       3.53       4.39
H       4.37       1.39       7.74
H      -0.21       6.31      11.68
H       2.93       8.95       0.47
H      10.51       2.69       2.11
H       4.57      -2.28      10.03
H       4.73       4.09      11.88
H      -0.59       0.56       5.86
H       4.22       3.67       0.27
H      11.19       1.15       3.88
H       5.96      -3.22       8.26
H       6.39       2.83       9.36
H       7.65       3.34      10.54
H       6.81       1.77      10.74
H       8.66       8.26       6.28
H       5.15       1.79       2.78
H       4.42       0.65       1.60
H       6.12       1.19       1.40
H       9.99       7.04       4.96
H       9.70       5.62       3.91
H       9.33       5.52       5.66
H       0.36      -0.99       7.19
H       1.82      -0.95       8.24
H       1.98      -0.61       6.49
C      11.02       6.49       1.37
C       2.42       7.17       1.77
C       1.62       6.49      10.37
C       8.94       2.74       3.73
C       4.80      -0.72       8.41
C       9.03       2.27       6.19
C       5.24      -0.90       5.95
C       0.73      -2.10      10.77
C       9.53       2.10       4.90
C       5.32      -1.42       7.24
C      10.76       1.40       4.86
C       5.79      -2.75       7.29
C      -1.56       1.04       6.00
C       8.36       9.30       6.14
C      -1.99       1.36       7.31
C       8.12       9.78       4.83
C       9.75       1.93       7.33
C       5.44      -1.68       4.81
C       8.78       2.62       8.26
C       4.93      -0.59       3.88
C       7.70       9.35       2.34
C      -1.50       1.69       9.80
C       7.90       2.93       6.97
C       8.00       8.94       3.65
C       4.79       0.32       5.17
C      -1.10      -3.90      10.79
C      13.12       7.97       1.36
C       1.97       7.89      10.29
C       0.98       7.08       1.85
C      -1.14       1.32       8.49
C       2.37       5.40       9.89
C       3.35       6.23       2.25
C       7.72       3.43       3.65
C       4.33       0.60       8.49
C       0.59       5.87      11.11
C       3.22       8.07       1.05
C       9.54       3.00       2.49
C       4.43      -1.27       9.65
C       7.83       7.54       3.59
C       0.27       1.23       8.55
C      10.87       8.37       0.21
C      -1.09      -1.62      11.93
C      11.73       7.67       1.09
C      -0.56      -2.59      11.06
C       7.21       2.48      10.00
C       5.35       0.92       2.13
C       9.34       6.18       4.78
C       1.33      -0.50       7.36
N       9.86       6.49       0.70
N       4.60       6.54       1.84
N       1.83       4.23      10.30
N       7.61       4.06       2.47
N       3.73       0.82       9.67
N       0.72       4.53      11.06
N       4.51       7.69       1.09
N       0.94      -0.95      11.44
N       8.75       3.79       1.74
N       3.79      -0.35      10.40
N       7.43       7.17       2.35
N       0.70       1.56       9.79
N       3.48       2.39      12.11
N       6.11       4.59       0.03
N       7.35       8.29       1.59
N      -0.39       1.84      10.55
O       8.21       1.79       9.25
O       5.85      -0.18       2.89
O       7.97       6.60       4.58
O       1.16       0.93       7.57
