200

Zr       0.34      18.45       1.46
Zr      -5.37       1.20      32.94
Zr      10.32       0.97       1.68
Zr      -3.65      18.73      32.76
Zr       4.32      18.72      32.85
Zr       2.38       0.89       1.45
H      -5.54      16.56      33.16
H       3.48       0.79      33.05
H      -2.56       0.79      32.95
H       0.62      20.40       3.54
H       1.85      18.18      34.04
H      10.52       1.75       4.25
H       2.30       2.06       3.93
H       4.34      17.40      30.52
H      -3.86      16.43      31.25
H      -0.96      19.07      32.11
H      -1.25      19.80      34.10
H       3.74      19.75      30.46
H       4.79       3.10      31.49
H       2.14      17.03       3.16
H       3.16      20.08       3.64
H      -5.27      17.29      31.06
H       5.73       2.29      30.47
H       7.75       1.63       1.26
H       7.94      20.36       0.30
H       4.88       0.06       1.48
H       0.75       2.28       3.38
H       0.90      17.47       4.08
H      -2.07       9.45      34.20
H       8.54      10.19       0.72
H       5.94      19.15       9.42
H       7.88      19.92      13.18
H      -1.36      19.26       9.66
H      -1.20       0.86      24.32
H      -3.23       0.74      20.54
H       6.09       0.74      24.17
H      -0.05       0.11      16.98
H       4.85       0.07      16.70
C       9.63      16.51       0.32
C       2.59      16.50       0.08
C       9.79      19.07       3.87
C       9.92       3.92       0.30
C       2.63       3.80       0.01
C      -3.67       0.35      30.24
C       5.39      11.37       0.25
C       6.79      11.38       0.44
C       7.46      10.17       0.55
C       6.83       8.93       0.42
C       5.42       8.91       0.20
C       4.75      10.14       0.13
C       8.11      19.17       9.39
C       6.85      19.29      10.00
C       6.77      19.60      11.36
C       7.95      19.70      12.11
C       9.20      19.55      11.52
C       9.28      19.32      10.15
C      -3.36       0.80      24.40
C      -2.12       0.85      23.74
C      -2.07       0.86      22.35
C      -3.26       0.78      21.62
C       7.10       0.72      22.26
C       7.05       0.77      23.65
C       1.63      -0.13      15.67
C       3.03      -0.11      15.59
C       3.77       0.08      16.76
C       3.17       0.26      18.02
C       1.77       0.30      18.09
C       1.03       0.10      16.92
C       5.15       1.66      20.98
C       5.94       0.56      21.35
C       5.69      19.90      20.66
C       4.81      19.81      19.57
C       4.09       0.36      19.19
C       4.25       1.56      19.90
C      -0.67       1.88      20.55
C      -0.85       0.85      21.50
C      -0.05      -0.29      21.40
C       0.77      20.11      20.32
C       0.97       0.54      19.32
C       0.18       1.71      19.45
C      -0.40       0.30      12.46
C      -1.24      19.69      12.43
C      -1.05      18.74      13.45
C      -0.16      18.98      14.51
C       0.64      20.15      14.53
C       0.52       0.53      13.49
C       5.43       0.58      12.71
C       5.55      19.85      12.16
C       4.76      18.80      12.65
C       3.87      19.00      13.72
C       3.75      20.27      14.34
C       4.60       0.77      13.82
C      -1.96      12.33      33.32
C       4.59      12.63       0.20
C       4.57      13.49       1.32
C       4.03      14.78       1.23
C       3.27      15.16       0.12
C      -2.65      13.55      33.32
C       8.06       5.42       1.24
C       9.17       5.25       0.38
C       3.81       5.71      33.83
C       3.03       6.87      33.80
C       7.68       7.71       0.46
C       7.44       6.67       1.37
C       3.55       7.38       0.97
C       4.63       7.66       0.09
C      -0.80       6.01      33.35
C      -1.38       4.74      33.40
C       3.30       5.15       0.03
C       2.86       6.16       0.90
C       8.25      13.14       1.58
C       7.60      12.64       0.43
C       2.06      12.66      33.45
C       2.79      13.85      33.40
C       8.97      15.14       0.36
C       8.82      14.42       1.57
C      -4.28      -0.39      27.90
C      -3.59       0.51      28.73
C      -2.86       1.54      28.12
C      -2.83       1.68      26.72
C      -3.43       0.72      25.88
C      -4.13      -0.34      26.50
C       9.16      17.91       7.49
C       8.28      18.92       7.93
C       7.66      19.70       6.94
C       7.97      19.53       5.58
C       9.10      18.76       5.19
C       9.64      17.90       6.17
Br       3.37       3.12      19.29
Br       5.41       3.30      21.89
Br       4.78      18.21      18.55
Br       6.70      18.39      21.21
Br       0.14       2.99      18.05
Br      -1.63       3.50      20.78
Br       1.68      18.47      20.10
Br      -0.36      18.86      22.65
Br       1.41       2.20      13.59
Br      -0.70       1.62      11.12
Br      -0.13      17.78      15.98
Br      -2.03      17.12      13.37
Br       4.65       2.45      14.72
Br       6.39       2.03      11.95
Br       2.98      17.52      14.47
Br       5.01      17.07      11.92
Br      -3.94      13.91      31.96
Br      -2.14      11.16      31.84
Br       4.38      16.03       2.63
Br       5.14      12.84       3.00
Br       6.31       7.02       2.86
Br       7.25       4.00       2.21
Br       3.41       8.22      32.51
Br       5.41       5.72      32.80
Br       1.37       5.78       2.00
Br       3.05       8.62       2.31
Br      -0.69       3.31      32.35
Br       0.32       6.46      31.89
Br       9.31      15.18       3.23
Br       8.45      12.03       3.10
Br       3.31      14.54      31.72
Br       1.43      11.86      31.84
Br       6.71      18.78      25.47
Br       6.04      18.95      28.69
Br      -2.01       3.21      25.96
Br      -1.91       2.74      29.24
Br      -0.53      16.68       5.81
Br       9.67      16.54       8.71
Br       6.82      20.27       4.28
Br       6.54       0.54       7.43
O       1.55      17.78       3.40
O      10.65      16.67       1.07
O      10.54      18.21       3.31
O      -2.87      16.60      33.35
O       9.63      20.26       3.46
O       1.77      16.72       1.03
O       3.41      16.71      33.76
O      10.49      19.64       0.78
O      -5.47      17.47      33.49
O       0.64      20.35       2.58
O       1.92      19.55       0.60
O      -1.58      18.93      32.85
O       2.17      19.04      33.71
O      -5.47      19.76      32.43
O       4.26       0.40      33.47
O       0.49       1.59       0.72
O      -3.33       0.35      33.35
O       8.26       0.81       1.42
O       9.78       3.13       1.27
O       4.87       3.02      33.49
O       3.53       0.19       3.00
O      -4.00       2.95      33.34
O      10.90       2.06       3.41
O       1.78       2.32       3.15
O       4.54       0.54       0.69
O       3.03       2.97       0.88
O       5.03       2.21      31.15
O      -4.19      17.33      31.09
O      -4.30       1.26      30.87
O      -3.20      19.88      30.74
O       4.93      17.33      31.29
O       3.30      19.52      31.30
