96

Zn       3.74       5.88       7.77
Zn       6.56       5.90       7.54
H       4.08       3.87       3.66
H       2.06       9.94       7.85
H       2.55      10.08       6.13
H       8.65       4.66      10.44
H       5.47       7.89       3.32
H       5.82       9.34      13.84
H       4.30       2.72      14.42
H       7.42      10.18       8.30
H       8.31       1.28       8.85
H       8.89       1.22       6.53
H       9.28       2.82       7.23
H       7.79       2.60       6.28
H       1.97       2.67       8.62
H       2.52       2.94       6.03
H       9.81       5.89       4.36
H       7.38       5.41       3.86
H       7.35       4.41       5.33
H       8.39       3.93       3.96
H       2.63       7.55       5.73
H       2.51       4.18      10.66
H       1.47       7.77      10.55
H       7.90       7.53       9.95
H       5.31       9.59       2.17
H       5.51       7.99      10.42
H       5.08       2.47      12.60
H       3.48       2.19       2.81
C       5.39       8.43       7.81
C       4.40       4.53       1.61
C       5.36       8.05       0.57
C       5.62       8.46      14.45
C       5.31       7.23      13.81
C       5.07       6.08      14.63
C       4.87       4.80      14.02
C       4.52       3.70      14.85
C       4.11       3.28       0.96
C       5.25       7.10      12.40
C       5.12       5.83      11.81
C       5.08       5.75      10.30
C       4.97       4.68      12.60
C       4.17      10.61       7.55
C       5.34       9.91       7.84
C       6.48      10.70       8.09
C       6.48       1.15       8.01
C       5.26       1.85       7.74
C       4.14       1.04       7.56
C       2.63       1.07       7.23
C       2.72      10.46       7.15
C       9.31       5.64       8.55
C       5.13       3.32       7.65
C       9.48       5.80       6.29
C       1.04       6.27       6.48
C       0.88       5.78       8.69
C       0.87       5.63      10.20
C       9.06       5.60      10.04
C       4.88       5.96       5.09
C       4.38       4.69       3.01
C       4.78       5.89       3.60
C       5.14       6.99       2.82
C       5.06       6.92       1.42
C       4.74       5.66       0.80
C       8.46       2.12       7.00
C       1.77       1.61       8.36
C       2.38       1.84       5.94
C       7.98       4.79       4.52
C       1.77       6.94       5.39
C       1.41       4.28      10.72
C       1.45       6.77      11.04
C       8.34       6.79      10.66
C       5.65       9.40       1.13
C       5.34       8.27      11.48
C       4.93       3.35      11.95
C       3.67       2.07       1.72
N       8.64       5.65       7.39
N       1.66       6.17       7.68
N       7.71       1.82       8.23
N       9.10       5.55       5.04
O       4.28       7.84       7.58
O       6.52       7.86       7.99
O       3.93       5.98       9.78
O       6.16       5.58       9.66
O       4.00       3.83       7.94
O       6.14       3.98       7.24
O       3.89       5.48       5.74
O       5.92       6.47       5.60
O       0.94       0.94       8.95
O       2.10       1.32       4.87
O       1.41       6.93       4.21
O       0.69       3.41      11.16
O       1.86       6.59      12.17
O       8.28       6.95      11.87
O       6.20      10.29       0.49
O       5.22       9.45      11.78
O       4.76       3.20      10.74
O       3.49       0.98       1.19
