340

Zn      12.61       3.37      11.07
Zn      13.38      16.46      24.73
Zn       4.71      13.28      16.23
Zn       3.95       6.55       2.58
Zn       4.71      16.46      16.23
Zn       3.95       3.37       2.58
Zn      12.61       6.55      11.07
Zn      13.38      13.28      24.73
Zn      10.38       4.96       9.42
Zn      15.60      14.87      23.08
Zn       6.94      14.87      17.89
Zn       1.72       4.96       4.23
Zn      10.28       4.96      12.64
Zn      15.71      14.87      26.30
Zn       7.05      14.87      14.67
Zn       1.62       4.96       1.01
H      13.22       0.43      13.88
H      12.77      19.40       0.22
H       4.11      10.34      13.43
H       4.55       9.49      27.08
H       4.11      19.40      13.43
H       4.55       0.43      27.08
H      13.22       9.49      13.88
H      12.77      10.34       0.22
H      11.10       3.23      16.35
H      14.88      16.60       2.69
H       6.22      13.14      10.96
H       2.44       6.69      24.61
H       6.22      16.60      10.96
H       2.44       3.23      24.61
H      11.10       6.69      16.35
H      14.88      13.14       2.69
H      11.93       2.04      18.38
H      14.06      17.79       4.72
H       5.40      11.95       8.93
H       3.27       7.88      22.58
H       5.40      17.79       8.93
H       3.27       2.04      22.58
H      11.93       7.88      18.38
H      14.06      11.95       4.72
H      15.40      19.14      17.92
H      10.59       0.69       4.26
H       1.92       9.22       9.39
H       6.74      10.61      23.05
H       1.92       0.69       9.39
H       6.74      19.14      23.05
H      15.40      10.61      17.92
H      10.59       9.22       4.26
H      11.45       0.09      19.45
H      14.54      19.74       5.80
H       5.87      10.00       7.86
H       2.79       9.83      21.51
H       5.87      19.74       7.86
H       2.79       0.09      21.51
H      11.45       9.83      19.45
H      14.54      10.00       5.80
H      15.91      17.80      19.94
H      10.08       2.03       6.29
H       1.41       7.88       7.36
H       7.25      11.95      21.02
H       1.41       2.03       7.36
H       7.25      17.80      21.02
H      15.91      11.95      19.94
H      10.08       7.88       6.29
H      12.02      18.67      21.52
H      13.97       1.16       7.87
H       5.31       8.75       5.78
H       3.36      11.08      19.44
H       5.31       1.16       5.78
H       3.36      18.67      19.44
H      12.02      11.08      21.52
H      13.97       8.75       7.87
H      14.20      18.56      14.94
H      11.78       1.27       1.28
H       3.12       8.64      12.37
H       5.54      11.19      26.02
H       3.12       1.27      12.37
H       5.54      18.56      26.02
H      14.20      11.19      14.94
H      11.78       8.64       1.28
H       6.31       4.96       8.73
H       2.35      14.87      22.39
H      11.01      14.87      18.57
H      14.97       4.96       4.92
H       6.12       4.96      13.02
H       2.54      14.87      26.68
H      11.20      14.87      14.29
H      14.79       4.96       0.63
H       3.63       4.96      12.91
H       5.04      14.87      26.57
H      13.70      14.87      14.40
H      12.29       4.96       0.74
H       3.81       4.96       8.61
H       4.85      14.87      22.27
H      13.51      14.87      18.70
H      12.47       4.96       5.04
H       1.91       2.81      10.71
H       6.75      17.02      24.37
H      15.41      12.72      16.60
H      10.57       7.11       2.94
H      15.41      17.02      16.60
H      10.57       2.81       2.94
H       1.91       7.11      10.71
H       6.75      12.72      24.37
H      16.74       2.81      10.89
H       9.25      17.02      24.55
H       0.59      12.73      16.42
H       8.07       7.10       2.76
H       0.59      17.02      16.42
H       8.07       2.81       2.76
H      16.74       7.10      10.89
H       9.25      12.73      24.55
C      11.68       2.61      13.75
C      14.31      17.22       0.10
C       5.65      12.52      13.55
C       3.02       7.31      27.21
C       5.65      17.22      13.55
C       3.02       2.61      27.21
C      11.68       7.31      13.75
C      14.31      12.52       0.10
C      12.10       1.89      14.99
C      13.88      17.94       1.34
C       5.22      11.80      12.32
C       3.44       8.03      25.97
C       5.22      17.94      12.32
C       3.44       1.89      25.97
C      12.10       8.03      14.99
C      13.88      11.80       1.34
C      12.93       0.76      14.87
C      13.06      19.07       1.22
C       4.40      10.68      12.43
C       4.26       9.15      26.09
C       4.40      19.07      12.43
C       4.26       0.76      26.09
C      12.93       9.15      14.87
C      13.06      10.68       1.22
C      11.73       2.34      16.26
C      14.26      17.49       2.61
C       5.59      12.26      11.05
C       3.07       7.57      24.70
C       5.59      17.49      11.05
C       3.07       2.34      24.70
C      11.73       7.57      16.26
C      14.26      12.26       2.61
C      12.19       1.67      17.39
C      13.80      18.16       3.73
C       5.14      11.58       9.92
C       3.53       8.25      23.57
C       5.14      18.16       9.92
C       3.53       1.67      23.57
C      12.19       8.25      17.39
C      13.80      11.58       3.73
C      13.36       0.08      16.01
C      12.62      19.75       2.35
C       3.96      10.00      11.30
C       4.70       9.83      24.95
C       3.96      19.75      11.30
C       4.70       0.08      24.95
C      13.36       9.83      16.01
C      12.62      10.00       2.35
C      13.00       0.52      17.30
C      12.99      19.31       3.65
C       4.32      10.44      10.00
C       4.34       9.39      23.66
C       4.32      19.31      10.00
C       4.34       0.52      23.66
C      13.00       9.39      17.30
C      12.99      10.44       3.65
C      13.38      19.62      18.53
C      12.60       0.21       4.87
C       3.94       9.70       8.78
C       4.72      10.13      22.44
C       3.94       0.21       8.78
C       4.72      19.62      22.44
C      13.38      10.13      18.53
C      12.60       9.70       4.87
C      14.65      19.02      18.69
C      11.34       0.81       5.04
C       2.68       9.11       8.62
C       5.99      10.72      22.27
C       2.68       0.81       8.61
C       5.99      19.02      22.27
C      14.65      10.72      18.69
C      11.34       9.11       5.04
C      12.44      19.49      19.57
C      13.54       0.34       5.91
C       4.88       9.57       7.74
C       3.78      10.26      21.39
C       4.88       0.34       7.74
C       3.78      19.49      21.39
C      12.44      10.26      19.57
C      13.54       9.57       5.91
C      14.94      18.28      19.83
C      11.04       1.55       6.18
C       2.38       8.37       7.48
C       6.28      11.46      21.13
C       2.38       1.55       7.48
C       6.28      18.28      21.13
C      14.94      11.46      19.83
C      11.04       8.37       6.18
C      12.75      18.78      20.72
C      13.24       1.05       7.07
C       4.58       8.86       6.58
C       4.09      10.97      20.24
C       4.58       1.05       6.58
C       4.09      18.78      20.24
C      12.75      10.97      20.72
C      13.24       8.86       7.07
C      13.99      18.15      20.86
C      11.99       1.68       7.20
C       3.33       8.23       6.45
C       5.33      11.60      20.11
C       3.33       1.68       6.45
C       5.33      18.15      20.11
C      13.99      11.60      20.86
C      11.99       8.23       7.20
C      14.27      17.30      22.05
C      11.72       2.53       8.40
C       3.06       7.39       5.26
C       5.61      12.44      18.91
C       3.06       2.53       5.26
C       5.61      17.30      18.91
C      14.27      12.44      22.05
C      11.72       7.39       8.40
C       7.85       4.96      10.95
C       0.81      14.87      24.60
C       9.47      14.87      16.36
C      16.52       4.96       2.71
C       6.36       4.96      10.88
C       2.30      14.87      24.54
C      10.96      14.87      16.42
C      15.03       4.96       2.77
C       5.71       4.96       9.64
C       2.95      14.87      23.30
C      11.61      14.87      17.67
C      14.37       4.96       4.01
C       5.61       4.96      12.06
C       3.06      14.87      25.72
C      11.72      14.87      15.25
C      14.27       4.96       1.59
C       4.22       4.96      11.99
C       4.44      14.87      25.65
C      13.11      14.87      15.31
C      12.88       4.96       1.66
C       4.32       4.96       9.58
C       4.34      14.87      23.23
C      13.01      14.87      17.73
C      12.98       4.96       4.08
C       3.56       4.96      10.76
C       5.11      14.87      24.41
C      13.77      14.87      16.55
C      12.22       4.96       2.90
C       2.07       4.96      10.73
C       6.59      14.87      24.39
C      15.26      14.87      16.57
C      10.73       4.96       2.92
C       1.36       3.75      10.76
C       7.30      16.08      24.41
C      15.96      13.66      16.55
C      10.02       6.17       2.89
C      15.96      16.08      16.55
C      10.02       3.75       2.89
C       1.36       6.17      10.76
C       7.30      13.66      24.41
C      17.30       3.75      10.86
C       8.69      16.08      24.51
C       0.03      13.66      16.45
C       8.63       6.17       2.80
C       0.03      16.08      16.45
C       8.63       3.75       2.80
C      17.30       6.17      10.86
C       8.69      13.66      24.51
C      16.59       4.96      10.92
C       9.39      14.87      24.58
C       0.73      14.87      16.39
C       7.93       4.96       2.73
C      15.11       4.96      11.06
C      10.88      14.87      24.71
C       2.22      14.87      16.25
C       6.45       4.96       2.60
O      12.28       2.29      12.67
O      13.71      17.54      26.33
O       5.04      12.20      14.64
O       3.62       7.63       0.98
O       5.04      17.54      14.64
O       3.62       2.29       0.98
O      12.28       7.63      12.67
O      13.71      12.20      26.33
O      10.76       3.49      13.87
O      15.22      16.34       0.22
O       6.56      13.40      13.43
O       2.10       6.43      27.09
O       6.56      16.34      13.43
O       2.10       3.49      27.09
O      10.76       6.43      13.87
O      15.22      13.40       0.22
O      13.52      17.49      23.07
O      12.47       2.34       9.41
O       3.81       7.57       4.24
O       4.85      12.26      17.90
O       3.81       2.34       4.24
O       4.85      17.49      17.90
O      13.52      12.26      23.07
O      12.47       7.57       9.41
O      15.22      16.45      21.96
O      10.77       3.38       8.30
O       2.11       6.53       5.35
O       6.55      13.30      19.01
O       2.11       3.38       5.35
O       6.55      16.45      19.01
O      15.22      13.30      21.96
O      10.77       6.53       8.30
O      14.14      18.78      15.88
O      11.85       1.05       2.23
O       3.19       8.87      11.42
O       5.47      10.96      25.08
O       3.19       1.05      11.42
O       5.47      18.78      25.08
O      14.14      10.96      15.88
O      11.85       8.87       2.23
O       8.47       4.96       9.83
O       0.19      14.87      23.49
O       8.85      14.87      17.48
O      17.14       4.96       3.82
O       8.39       4.96      12.11
O       0.27      14.87      25.77
O       8.93      14.87      15.20
O      17.06       4.96       1.54
O      14.53       3.82      11.11
O      11.46      16.01      24.77
O       2.80      13.73      16.19
O       5.87       6.10       2.54
O       2.80      16.01      16.19
O       5.87       3.82       2.54
O      14.53       6.10      11.11
O      11.46      13.73      24.77
O      11.46       4.96      11.07
O      14.53      14.87      24.72
O       5.87      14.87      16.24
O       2.80       4.96       2.59
