154

Zn       0.00       2.90       5.02
Zn       0.00      11.36       9.63
Zn      14.67      11.12       0.00
Cr       7.33       1.94       0.00
Cr       7.33       7.49      12.98
Cr       7.33      15.96       1.68
H       3.96      16.74       3.99
H       1.74      17.42       5.00
H       3.96      12.01      12.83
H       1.74      12.55      11.73
H       3.96      22.03      12.50
H       1.74      20.81      12.59
H      10.71      16.74       3.99
H      12.92      17.42       5.00
H      10.71      12.01      12.83
H      12.92      12.55      11.73
H      10.71      22.03      12.50
H      12.92      20.81      12.59
H      10.71       3.55       1.83
H      12.92       4.08       2.93
H      10.71      13.56       2.16
H      12.92      12.35       2.07
H      10.71       8.28      10.67
H      12.92       8.96       9.66
H       3.96       3.55       1.83
H       1.74       4.08       2.93
H       3.96      13.56       2.16
H       1.74      12.35       2.07
H       3.96       8.28      10.67
H       1.74       8.96       9.66
H       7.33       7.98       0.00
H       7.33      21.40       7.75
H       7.33      12.94       6.91
H       0.00      19.36       9.28
H       0.00      15.28       7.91
H      14.67      16.13      12.13
H      14.67       6.82       6.75
H      14.67       7.67       2.53
H      14.67      10.90       5.38
H       7.33       4.18       2.07
H       7.33       6.68       2.16
H       7.33       8.16      10.01
H       7.33       6.99       7.79
H       7.33      13.05       2.59
H       7.33      11.71       4.71
H       7.33      16.63       4.65
H       7.33      15.46       6.87
H       7.33      21.51      12.07
H       7.33      20.17       9.95
H       7.33      12.64      12.59
H       7.33      15.15      12.50
C       3.51      17.70       3.75
C       2.29      18.07       4.31
C       3.51      11.32      12.11
C       2.29      11.63      11.51
C       3.51      21.75      13.45
C       2.29      21.08      13.49
C      11.16      17.70       3.75
C      12.37      18.07       4.31
C      11.16      11.32      12.11
C      12.37      11.63      11.51
C      11.16      21.75      13.45
C      12.37      21.08      13.49
C      11.16       2.86       2.55
C      12.37       3.16       3.15
C      11.16      13.29       1.20
C      12.37      12.62       1.17
C      11.16       9.24      10.91
C      12.37       9.61      10.34
C       3.51       2.86       2.55
C       2.29       3.16       3.15
C       3.51      13.29       1.20
C       2.29      12.62       1.17
C       3.51       9.24      10.91
C       2.29       9.61      10.34
C       7.33       6.89       0.00
C       7.33      21.95       8.70
C       7.33      13.48       5.96
C       5.41      18.19       2.19
C       4.14      18.57       2.85
C       5.41       9.73      12.47
C       4.14      10.11      11.81
C       5.41      22.86      14.66
C       4.14      22.10      14.66
C       9.25      18.19       2.19
C      10.53      18.57       2.85
C       9.25       9.73      12.47
C      10.53      10.11      11.81
C       9.25      14.40       0.00
C      10.53      13.63       0.00
C       0.00      17.83       7.02
C       0.00      17.37       8.44
C       0.00      18.30       9.49
C      14.67      14.09      10.37
C      14.67      15.55      10.05
C      14.67      16.00       8.73
C      14.67      18.86      11.93
C       0.00      17.85      10.82
C      14.67      16.48      11.10
C      14.67       5.62       4.29
C      14.67       7.09       4.61
C      14.67       7.54       5.93
C      14.67      10.40       2.72
C      14.67       9.39       3.84
C      14.67       8.02       3.56
C      14.67       9.37       7.64
C      14.67       8.91       6.22
C      14.67       9.83       5.16
C       7.33       4.78       1.16
C       7.33       6.17       1.20
C       7.33       7.08       9.94
C       7.33       6.42       8.71
C       7.33      13.53       3.56
C       7.33      12.80       4.75
C       7.33      15.54       4.72
C       7.33      14.88       5.95
C       7.33      21.99      11.10
C       7.33      21.26       9.91
C       7.33      13.24      13.50
C       7.33      14.64      13.46
N       7.33       4.10       0.00
N       7.33       6.42      11.11
N       7.33      14.88       3.55
N       1.70       2.32       4.03
N       1.70      10.79      10.63
N       1.70      20.74      14.66
N      12.96       2.32       4.03
N      12.96      10.79      10.63
N      12.96      20.74      14.66
O       5.91       2.10       1.35
O       5.91       8.59      12.17
O       5.91      14.70       1.14
O       8.76       2.10       1.35
O       8.76       8.59      12.17
O       8.76      14.70       1.14
O       8.76      17.05       2.49
O       8.76      23.17      13.52
O       8.76      10.56      13.30
O       5.91      17.05       2.49
O       5.91      23.17      13.52
O       5.91      10.56      13.30
O       7.33      16.93       0.00
O      14.67      16.99       6.08
O      14.67      19.12       6.85
O      14.67      13.70      11.56
O      14.67      13.30       9.33
O      14.67      20.09      11.67
O       0.00      18.36      13.13
O       0.00       5.23       3.10
O      14.67       4.83       5.32
O      14.67      11.63       2.98
O      14.67       9.90       1.52
O      14.67       8.53       8.58
O       0.00      10.66       7.81
