124

Er       1.67       7.98      13.80
Er       2.17       2.35       4.76
Er       5.50       8.90       4.76
Er       5.00      14.53      13.80
H       4.07       7.89      17.96
H       6.43       2.27       0.60
H       3.10       8.99       0.60
H       0.74      14.62      17.96
H       3.08      16.29      17.33
H       0.76      10.66       1.23
H       4.08       0.60       1.23
H       6.41       6.22      17.33
H       3.82       5.09      10.46
H       6.67      10.71       8.10
H       3.35      11.79       8.10
H       0.49       6.17      10.46
H       2.70       7.96      10.65
H       1.14      13.58       7.91
H       4.46       8.92       7.91
H       6.03       3.30      10.66
H       2.83       5.91       8.29
H       1.00      11.54      10.27
H       4.33      10.97      10.27
H       6.16       5.34       8.29
H       1.41       8.61       8.73
H       2.43       2.98       9.83
H       5.76       8.27       9.83
H       4.74      13.90       8.73
H       2.39      10.73      12.64
H       1.45       5.09       5.92
H       4.78       6.16       5.92
H       5.72      11.79      12.64
H       3.72       9.86      12.70
H       6.77       4.23       5.87
H       3.45       7.03       5.87
H       0.39      12.65      12.70
H       6.43      10.11      13.99
H       4.07       4.48       4.58
H       0.74       6.77       4.57
H       3.10      12.40      13.98
H       0.89      10.73      14.94
H       2.94       5.10       3.62
H       6.27       6.15       3.62
H       4.22      11.78      14.94
H       5.39       7.46      14.16
H       5.10       1.83       4.40
H       1.78       9.42       4.40
H       2.06      15.05      14.16
H       6.11       6.35      14.99
H       4.39      11.98       3.57
H       1.06      10.53       3.57
H       2.78       4.91      14.99
C       2.94       7.40      16.15
C       0.90       1.77       2.41
C       4.22       9.48       2.41
C       6.27      15.11      16.15
C       3.60       7.07      17.42
C       0.24       1.44       1.14
C       3.57       9.82       1.14
C       6.93      15.44      17.42
C       3.56       5.81      17.92
C       0.27      11.44       0.64
C       3.60      11.07       0.64
C       6.89       5.44      17.92
C       4.00       6.24      12.31
C       6.50      11.86       6.25
C       3.17      10.65       6.25
C       0.67       5.02      12.31
C       3.59       6.06      10.89
C       0.25      11.69       7.67
C       3.58      10.82       7.67
C       6.92       5.20      10.90
C       2.95       7.01      10.18
C       0.89      12.63       8.38
C       4.22       9.88       8.39
C       6.28       4.25      10.18
C       2.52       6.82       8.81
C       1.31      12.45       9.75
C       4.64      10.06       9.75
C       5.85       4.43       8.82
C       1.74       7.73       8.19
C       2.10      13.35      10.37
C       5.43       9.16      10.37
C       5.06       3.53       8.19
C       1.22       7.61       6.81
C       2.62      13.23      11.74
C       5.95       9.28      11.75
C       4.54       3.65       6.82
O       2.33       6.48      15.48
O       1.51      12.11       3.08
O       4.84      10.40       3.08
O       5.65       4.77      15.48
O       2.93       8.60      15.72
O       0.91       2.97       2.85
O       4.23       8.28       2.85
O       6.26      13.91      15.71
O       3.73       7.33      12.93
O       6.77      12.95       5.63
O       3.43       9.55       5.63
O       0.40       3.93      12.93
O       4.63       5.28      12.84
O       5.86      10.91       5.72
O       2.53      11.60       5.72
O       1.31       5.97      12.84
O       0.24       8.36       6.52
O       3.60      13.98      12.04
O       6.93       8.53      12.04
O       3.56       2.90       6.53
O       1.75       6.78       5.98
O       2.08      12.41      12.58
O       5.41      10.11      12.58
O       5.08       4.48       5.98
O       2.73       9.81      12.78
O       1.11       4.18       5.78
O       4.44       7.08       5.78
O       6.06      12.71      12.78
O       0.49       9.90      14.65
O       3.35       4.27       3.92
O       6.68       6.98       3.91
O       3.82      12.61      14.64
O       6.22       7.29      14.67
O       4.28       1.66       3.89
O       0.95       9.59       3.89
O       2.89      15.22      14.67
