150

Zn       6.04       1.92       0.21
Zn      18.27      23.14      15.60
Zn      15.51      23.40      14.16
Zn       8.99       1.65       1.59
H       2.76       1.65       0.75
H       8.71      17.48       6.58
H       5.16      18.38       4.29
H      19.28      18.60       6.38
H      18.47      17.60       8.72
H      20.77      21.24      11.16
H       6.56      20.02       9.38
H      10.83      10.38       5.99
H      10.97      11.81       4.01
H      10.96      15.30       6.54
H      10.84      13.87       8.52
H      19.95      21.39      13.43
H      10.35      12.49      10.12
H      13.84      21.30      15.68
H      12.27       9.63       7.48
H       9.82      11.59       2.14
H      13.36      19.08      15.54
H      10.27       9.25       2.82
H      12.74      16.70      15.51
H       9.74       6.85       2.64
H       6.34       7.75       0.15
H      14.09      14.93       0.32
H      13.70       7.14      11.36
H       9.92      18.72       4.75
H      14.26      17.43       3.82
H      16.55      18.20       3.19
H       9.85      22.19      13.99
H       3.06      18.09       1.68
H      10.76      13.70       1.43
H       6.47      17.76       2.30
H      10.39      16.49       4.52
H       5.59       5.35       0.77
H      14.35      10.68       2.91
H      12.04       2.81       1.09
H      15.41      11.65       1.87
H      15.95      11.18       3.50
H      15.19      13.60       3.47
H      14.15      12.63       4.53
H      12.51      12.36       2.65
H      13.54      13.32       1.60
H      15.06      18.62      12.89
H      15.00      17.02      12.12
H      15.67      17.20      13.75
H      17.57      16.98      12.13
H      18.63       6.41      13.86
H      17.55      18.60      12.84
H      16.20      19.35      10.75
H      16.58      17.79      10.04
H      12.84      10.63      13.78
H       9.82       4.76       1.51
H      16.12      21.33      11.41
H       7.42      17.76       8.66
C       3.11       0.88       0.07
C      13.12       9.66      13.37
C       8.75       4.68       1.34
C      12.52      14.42       3.11
C      16.97      21.46      12.08
C       7.78       5.69       1.22
C      18.28      20.96      11.98
C      13.00       9.18      12.05
C      19.43       8.09      15.15
C       6.92      17.90       7.70
C       7.65      17.75       6.52
C      11.50      14.59       4.05
C       7.05      17.98       5.27
C       5.66      18.21       5.25
C       4.93      18.33       6.42
C       7.89      14.67       0.18
C       5.56      18.25       7.68
C      18.98      18.40       9.26
C      18.30      19.05      10.30
C      18.93      20.13      10.96
C      20.27      20.42      10.65
C      20.95      19.73       9.65
C       8.60      13.61       0.76
C      20.29      18.75       8.89
C      10.89      11.46       6.12
C      10.96      12.28       5.00
C      11.07      13.67       5.12
C       9.20      18.50       3.96
C      10.92      14.22       6.41
C      10.85      13.41       7.53
C      10.92      12.01       7.42
C      10.98      11.62       9.92
C      11.55      10.96      11.00
C       7.85      18.11       4.05
C      12.39       9.83      10.90
C      12.54       9.39       9.57
C      12.01      10.02       8.46
C      11.25      11.19       8.61
C       8.17      12.22       0.91
C       9.88      14.16       1.00
C       8.01       7.13       1.36
C       9.41       8.93       2.24
C       9.12       7.59       2.13
C       7.19       8.07       0.76
C       6.60       4.98       0.94
C       7.46       9.46       0.85
C       8.61       9.90       1.59
C       8.93      11.28       1.60
C       7.00      11.77       0.24
C       6.65      10.44       0.21
C      14.06      16.12       2.12
C       7.44      18.04       2.71
C      10.11      23.51      15.73
C      23.56      22.18      15.28
C       9.41      22.58      14.91
C      18.92      21.52      13.10
C       2.53      17.39       1.03
C      16.65      16.98       1.41
C      15.93      16.04       0.59
C      14.63      15.62       0.96
C      14.76      17.06       2.93
C      16.01      17.47       2.58
C      11.19      15.97       4.00
C      12.43      23.37      14.56
C      11.46      23.94      15.39
C      13.23      13.19       2.65
C      13.56       7.88      12.13
C      14.46      12.78       3.48
C      15.08      11.50       2.91
C      16.95      18.54      10.76
C      16.99      17.92      12.17
C      15.61      17.67      12.76
C      11.78       1.99       0.42
C      18.57       7.08      14.71
N      11.34       7.50      15.45
N       8.69      15.76       0.06
N       9.54      18.66       2.67
N       9.91      15.44       0.58
N       6.37       0.82       1.89
N      11.97      16.64       3.15
N      11.50       6.44      14.58
N       6.85       3.65       0.92
N      18.06      22.27      13.80
N      13.93       7.62      13.40
N      10.63       1.30       0.69
N      17.48       6.94      15.54
N      13.66       8.72      14.17
N       8.18       3.47       1.16
N      16.85      22.24      13.17
N      12.79      15.68       2.60
F      11.26      11.45      12.24
F      13.31       8.27       9.35
F      22.89      21.30      14.47
F      12.32      22.25      13.80
