95

Zn       5.78       7.98       8.05
Zn       8.55       8.00       8.08
H       8.74       6.27       0.85
H       6.31       5.76      15.27
H      13.33       6.38       9.47
H      13.38       8.79      10.05
H       1.01       8.85      10.05
H       1.02      10.04       8.75
H      13.39       9.37       6.37
H       1.00       7.57       5.92
H      13.32       5.86       7.78
H       0.97       5.84       7.78
H       1.02       9.30       6.31
H       8.77       1.20       9.66
H       8.01      10.20       0.86
H       5.58       9.69      15.28
H       4.97       7.60       0.79
H       5.92      14.74       9.81
H      10.11      14.67       7.54
H      10.54      14.96       9.22
H       9.67      13.48       8.77
H       7.85      15.04       4.59
H       9.11      15.29       5.80
H       8.30      13.71       5.67
H       8.19      15.07       9.89
H      10.43       8.55      16.04
H      10.08       7.59      14.58
H       9.76       9.34      14.59
H       5.20       0.80      10.92
H       6.97       0.76      10.96
H       6.12       2.25      10.47
H       6.15       1.09       6.26
H       7.89       1.20       6.02
H       6.11      14.85       6.23
H       5.18       1.09       8.48
H       5.03      14.86       8.29
H       0.98       6.35       9.47
C       7.17       5.38       8.07
C       8.63       0.74       8.67
C       8.43      15.25       8.83
C       7.19       8.00       5.46
C       7.14      12.04       8.05
C       7.27       1.26       8.09
C       5.93      15.21       8.81
C       7.19      14.71       8.05
C       7.07      15.26       6.59
C       7.11       0.74       6.64
C       7.18      13.26       8.04
C       7.22       8.02       1.38
C       7.24       2.71       8.09
C       7.20       3.93       8.09
C      13.73       6.61       8.47
C       7.14      10.60       8.06
C      13.75       9.08       9.05
C       0.63       9.06       9.05
C      13.22       8.00       8.04
C       0.59       6.59       8.48
C       1.12       7.99       8.05
C       0.62       8.33       6.63
C       6.24       8.91      15.67
C      13.75       8.36       6.61
C       2.57       7.97       8.05
C      11.77       8.01       8.05
C       7.17       7.97      10.67
C       6.65       6.72      15.67
C       8.08       7.05       0.46
C       7.20       8.02       4.01
C       7.15       7.95      12.12
C       5.98       7.79       0.43
C       9.76      14.55       8.57
C       7.09       7.94      14.75
C       8.15      14.79       5.61
C      13.23      10.41       8.75
C      13.22       7.45       5.61
C       9.73       8.43      15.20
C       6.10       1.16      10.40
C       9.74       1.20       7.85
C       7.67       9.24       0.46
C       8.35       8.17      15.70
C       7.21       8.02       2.79
C       7.11       7.94      13.34
C       6.09       0.69       8.95
N       3.73       7.97       8.05
N      10.61       8.01       8.07
N      12.85      11.47       8.48
N      12.84       6.70       4.80
N      10.64       1.56       7.20
O       6.02       5.93       8.05
O       8.30       5.96       8.08
O       6.04       7.98       6.02
O       8.32       8.02       6.04
O       6.00      10.03       8.05
O       8.28      10.03       8.10
O       6.04       7.97      10.09
O       8.32       7.98      10.12
