160

Gd       2.24      15.54      23.66
Gd       5.01       7.24      12.62
Gd       4.72       1.05       0.53
Gd       1.96       9.35      11.57
H       4.19       3.68       4.35
H       2.49      11.98       7.75
H       2.78      12.91      19.84
H       4.47       4.61      16.44
H       0.21       2.71       5.72
H       6.47      11.00       6.37
H       6.76      13.88      18.47
H       0.49       5.59      17.82
H       6.23       1.39       3.66
H       0.45       9.68       8.44
H       0.73      15.20      20.53
H       6.52       6.91      15.75
H       0.49       5.03       6.34
H       6.18      13.33       5.76
H       6.47      11.56      17.85
H       0.78       3.27      18.43
H       4.89       4.91       8.64
H       1.79      13.20       3.46
H       2.07      11.68      15.55
H       5.18       3.39      20.73
H       4.49       3.42       6.68
H       2.19      11.72       5.42
H       2.48      13.17      17.51
H       4.78       4.87      18.77
H       0.82      12.93       1.72
H       5.85       4.64      10.37
H       6.14       3.66      22.47
H       1.11      11.95      13.82
H       6.31      11.32       2.83
H       0.36       3.02       9.27
H       0.65       5.27      21.36
H       6.60      13.57      14.92
H       5.44      10.12       1.83
H       1.24       1.82      10.27
H       1.52       6.47      22.36
H       5.73      14.77      13.92
H       4.53      11.31       2.81
H       2.15       3.02       9.28
H       2.43       5.28      21.38
H       4.82      13.58      14.90
H       5.07      12.77      23.53
H       2.18       4.48      12.75
H       1.89       3.82       0.66
H       4.79      12.12      11.44
H       3.40      12.26       0.65
H       3.28       3.96      11.44
H       3.57       4.33      23.53
H       3.69      12.63      12.75
H       4.85      11.03      23.88
H       2.40       2.73      12.40
H       2.12       5.56       0.31
H       4.56      13.86      11.78
H       1.05       7.20       9.06
H       5.63      15.49       3.03
H       5.91       9.39      15.13
H       1.34       1.10      21.15
C       1.51       0.99       1.64
C       5.17       9.29      10.46
C       5.45      15.60      22.55
C       1.80       7.30      13.73
C       1.79       1.77       2.83
C       4.88      10.07       9.26
C       5.17      14.82      21.36
C       2.08       6.52      14.93
C       3.06       2.42       3.03
C       3.61      10.72       9.07
C       3.90      14.17      21.16
C       3.35       5.88      15.12
C       3.23       3.17       4.22
C       3.44      11.47       7.88
C       3.73      13.42      19.97
C       3.52       5.13      16.31
C       2.23       3.29       5.17
C       4.45      11.59       6.92
C       4.74      13.30      19.02
C       2.51       5.00      17.27
C       0.99       2.64       4.96
C       5.69      10.94       7.13
C       5.98      13.95      19.22
C       1.27       5.66      17.06
C       0.79       1.90       3.82
C       5.89      10.19       8.28
C       6.17      14.70      20.37
C       1.08       6.40      15.91
C       2.46       4.11       6.38
C       4.22      12.41       5.72
C       4.51      12.48      17.81
C       2.75       4.18      18.47
C       1.45       4.96       6.85
C       5.22      13.26       5.24
C       5.51      11.63      17.34
C       1.74       3.33      18.94
C       1.68       5.81       7.95
C       5.00      14.10       4.14
C       5.29      10.79      16.24
C       1.96       2.49      20.04
C       2.93       5.76       8.63
C       3.75      14.06       3.46
C       4.04      10.83      15.56
C       3.21       2.53      20.72
C       3.92       4.90       8.14
C       2.76      13.19       3.95
C       3.04      11.69      16.05
C       4.21       3.40      20.24
C       3.71       4.09       7.04
C       2.97      12.38       5.06
C       3.26      12.50      17.15
C       3.99       4.21      19.13
C       3.17       6.61       9.82
C       3.51      14.90       2.27
C       3.79       9.98      14.37
C       3.46       1.69      21.92
C       0.05      12.97       0.94
C       6.63       4.67      11.16
C       6.91       3.62      23.25
C       0.34      11.92      13.03
C       5.43      11.16       2.20
C       1.25       2.86       9.90
C       1.53       5.44      21.99
C       5.72      13.73      14.29
C       4.34      12.03       0.13
C       2.34       3.74      11.96
C       2.62       4.56      24.05
C       4.63      12.85      12.23
N       5.45      12.08       1.08
N       1.23       3.79      11.02
N       1.52       4.51      23.11
N       5.74      12.80      13.17
O       0.39       0.39       1.46
O       6.29       8.69      10.64
O       6.58      16.20      22.73
O       0.67       7.90      13.55
O       2.40       0.86       0.71
O       4.28       9.15      11.38
O       4.56      15.73      23.48
O       2.69       7.44      12.81
O       4.16       6.35      10.58
O       2.51      14.65       1.51
O       2.80      10.24      13.61
O       4.45       1.94      22.67
O       2.33       7.56      10.03
O       4.35      15.86       2.07
O       4.64       9.03      14.16
O       2.61       0.74      22.12
O       4.06       2.36       2.17
O       2.62      10.66       9.92
O       2.91      14.23      22.02
O       4.34       5.93      14.26
O       0.67       6.62       8.33
O       6.00      14.92       3.77
O       6.29       9.97      15.86
O       0.96       1.67      20.42
O       0.13      13.80       0.00
O       6.55       5.50      12.09
O       6.83       2.79      24.19
O       0.42      11.09      12.10
