156

Zn       1.83       3.32      11.86
Zn       4.36       9.97      11.86
Zn      10.54       9.97       3.95
Zn       8.02       3.32       3.95
H      11.32       4.58      15.52
H       7.24       8.71      15.52
H       7.24      11.22       8.20
H      11.32       2.07       8.20
H       1.05       8.71       0.30
H       5.14       4.58       0.30
H       5.14       2.07       7.61
H       1.05      11.22       7.61
H       1.06       6.65      14.66
H       5.13       6.64      14.66
H       5.13       0.01       9.06
H       1.06      13.28       9.06
H      11.31       6.64       1.15
H       7.25       6.65       1.15
H       7.25      13.28       6.76
H      11.31       0.01       6.76
H       2.75       3.40       8.94
H       3.44       9.89       8.94
H       3.44      10.05      14.77
H       2.75       3.24      14.77
H       9.63       9.89       6.87
H       8.94       3.40       6.87
H       8.94       3.24       1.04
H       9.63      10.05       1.04
H       4.37       4.70       7.57
H       1.81       8.59       7.57
H       1.81      11.34       0.33
H       4.37       1.95       0.33
H       8.00       8.59       8.24
H      10.56       4.70       8.24
H      10.56       1.95      15.48
H       8.00      11.34      15.48
H       5.43       6.87      11.18
H       0.76       6.42      11.18
H       0.76       0.22      12.54
H       5.43      13.07      12.54
H       6.95       6.42       4.63
H      11.62       6.87       4.63
H      11.62      13.07       3.27
H       6.95       0.22       3.27
H       3.81       5.42      12.40
H       2.38       7.87      12.40
H       2.38      12.07      11.32
H       3.81       1.22      11.32
H       8.57       7.87       3.41
H      10.00       5.42       3.41
H      10.00       1.22       4.50
H       8.57      12.07       4.50
H       6.35       7.62       9.10
H      12.22       5.67       9.10
H      12.22       0.98      14.62
H       6.35      12.31      14.62
H       6.03       5.67       6.71
H       0.16       7.62       6.71
H       0.16      12.31       1.19
H       6.03       0.98       1.19
C       0.31       4.20      13.84
C       5.88       9.09      13.84
C       5.88      10.84       9.87
C       0.31       2.44       9.87
C      12.07       9.09       1.97
C       6.50       4.20       1.97
C       6.50       2.44       5.94
C      12.07      10.84       5.94
C      12.13       5.03      14.94
C       6.43       8.26      14.94
C       6.43      11.67       8.78
C      12.13       1.61       8.78
C       0.24       8.26       0.87
C       5.94       5.03       0.87
C       5.94       1.61       7.03
C       0.24      11.67       7.03
C       0.24       6.25      15.26
C       5.95       7.04      15.26
C       5.95      12.89       8.45
C       0.24       0.40       8.45
C      12.13       7.04       0.55
C       6.43       6.25       0.55
C       6.43       0.40       7.36
C      12.13      12.89       7.36
C       3.38       4.17       9.40
C       2.81       9.12       9.40
C       2.81      10.81      14.32
C       3.38       2.48      14.32
C       8.99       9.12       6.42
C       9.57       4.17       6.42
C       9.57       2.48       1.49
C       8.99      10.81       1.49
C       4.28       4.90       8.64
C       1.91       8.39       8.64
C       1.91      11.55      15.08
C       4.28       1.74      15.08
C       8.10       8.39       7.17
C      10.47       4.90       7.17
C      10.47       1.74       0.73
C       8.10      11.55       0.73
C       5.05       5.90       9.26
C       1.14       7.38       9.26
C       1.14      12.55      14.46
C       5.05       0.74      14.46
C       7.33       7.38       6.55
C      11.24       5.90       6.55
C      11.24       0.74       1.35
C       7.33      12.55       1.35
C       4.88       6.09      10.64
C       1.31       7.20      10.64
C       1.31      12.74      13.07
C       4.88       0.55      13.07
C       7.50       7.20       5.17
C      11.07       6.09       5.17
C      11.07       0.55       2.74
C       7.50      12.74       2.74
C       3.97       5.30      11.33
C       2.21       7.99      11.33
C       2.21      11.94      12.39
C       3.97       1.35      12.39
C       8.40       7.99       4.48
C      10.16       5.30       4.48
C      10.16       1.35       3.42
C       8.40      11.94       3.42
C       5.99       6.75       8.54
C       0.20       6.54       8.54
C       0.20       0.11      15.18
C       5.99      13.18      15.18
C       6.39       6.54       7.27
C      12.18       6.75       7.27
C      12.18      13.18       0.64
C       6.39       0.11       0.64
N       3.22       4.36      10.72
N       2.96       8.93      10.72
N       2.96      11.00      13.00
N       3.22       2.29      13.00
N       9.15       8.93       5.09
N       9.41       4.36       5.09
N       9.41       2.29       2.82
N       9.15      11.00       2.82
O       1.20       4.75      13.07
O       4.99       8.54      13.07
O       4.99      11.40      10.65
O       1.20       1.89      10.65
O      11.17       8.54       2.74
O       7.39       4.75       2.74
O       7.39       1.89       5.16
O      11.17      11.40       5.16
O      12.32       3.00      13.72
O       6.25      10.29      13.72
O       6.25       9.65      10.00
O      12.32       3.64      10.00
O       0.06      10.29       2.10
O       6.13       3.00       2.10
O       6.13       3.64       5.81
O       0.06       9.65       5.81
