246

Hf      12.67      15.91      15.05
Hf      12.43      14.74       0.07
Hf      15.81      16.37      16.50
Hf      14.58      13.13      15.96
Hf      14.57       0.52       0.63
Hf      15.59      15.19       1.51
H       1.73       4.05      10.43
H       1.96       3.69       7.82
H      10.23       9.67       6.09
H       9.88       9.96       8.69
H       3.06       9.23       3.90
H       2.93       6.59       4.18
H       8.54       4.43      12.61
H       8.95       7.06      12.57
H       8.40       2.64       5.78
H       5.77       2.90       5.36
H       3.30      11.08      10.78
H       5.92      10.81      11.23
H      11.92      13.19      15.05
H      14.73       0.89      16.00
H      -0.51      14.01      17.32
H      13.18      15.94       2.56
H      -0.45      12.71      12.48
H       3.72      15.36      12.25
H       6.87      11.56      13.04
H       9.08      15.97      12.92
H       1.59      15.26       3.74
H       4.97       2.07       3.45
H      12.07       1.07       3.90
H       7.07      15.78       4.32
H       5.07       0.24       7.97
H       6.65      13.47       8.60
H      10.20       0.77      14.24
H       9.13       4.66      17.12
H       9.13       9.18      13.28
H      11.51       9.93       0.26
H       0.79       2.89       2.77
H       2.00       5.24      17.18
H      -0.19       9.68      16.61
H       3.50      11.34       2.82
H       5.24       5.27       0.69
H       6.41       8.25      15.90
H      15.00      12.55       4.85
H      11.43       9.20       4.02
H      10.40      11.16      10.21
H      15.04      11.55      11.85
H       1.44       2.97       5.94
H      14.14       1.93       5.03
H       0.06       2.28      14.06
H      14.79       2.94       9.97
H      16.32       6.14       6.62
H      13.00       7.50       9.99
C      -0.39       4.41      10.01
C       0.95       4.25       9.70
C       1.07       4.05       8.31
C      -0.20       4.13       7.74
C      12.32       9.26       6.59
C      10.97       9.43       6.84
C      10.80       9.60       8.23
C      12.04       9.53       8.85
C       3.68       8.81       1.84
C       3.41       8.51       3.17
C       3.32       7.11       3.31
C       3.53       6.54       2.06
C       7.93       4.74      14.69
C       8.25       5.12      13.39
C       8.46       6.52      13.38
C       8.26       7.01      14.66
C       7.97       0.50       5.92
C       7.67       1.85       5.87
C       6.27       1.97       5.64
C       5.72       0.71       5.58
C       3.74      13.22      10.64
C       4.03      11.87      10.69
C       5.43      11.74      10.94
C       5.99      13.00      11.00
C      15.69       0.34      13.74
C       9.83      14.56      15.07
C      13.39      13.33      13.05
C      11.96       1.05      16.22
C      13.52      13.18       2.72
C       0.93      16.62       1.55
C      11.96      11.09      16.43
C      10.91      16.78       1.88
C      17.28       2.49       0.25
C      -0.19      14.38      14.57
C      -0.33      12.53       0.43
C      15.84       0.43       3.49
C       0.44      13.33      12.39
C       0.69      14.30      13.38
C       1.85      15.08      13.22
C       2.77      14.83      12.22
C       2.56      13.80      11.28
C       1.33      13.13      11.36
C       7.37      12.52      12.96
C       7.09      13.39      11.88
C       7.73      14.64      11.93
C       8.57      15.01      12.96
C       8.81      14.16      14.06
C       8.18      12.91      14.02
C       2.15      16.19       3.67
C       1.97      17.01       2.54
C       3.59       0.76       2.52
C       4.41       1.15       3.56
C       4.61       0.33       4.69
C       3.00      16.56       4.69
C      11.20       0.43       4.04
C      10.03      16.89       3.07
C       8.90      16.08       3.28
C       8.00      16.33       4.31
C       9.13      -0.08       5.23
C      10.34       0.62       5.10
C       4.72      16.75       8.09
C       5.61      16.35       7.08
C       6.29      15.15       7.33
C       6.10      14.40       8.48
C       5.20      14.81       9.49
C       4.52      16.01       9.24
C       9.92       1.60      14.90
C      10.72       1.85      16.03
C      10.32       2.90      16.86
C       9.29       3.77      16.51
C       8.58       3.59      15.31
C       8.87       2.42      14.58
C       9.49       9.13      14.30
C       8.96       8.17      15.20
C       9.45       8.24      16.52
C      10.44       9.12      16.92
C      11.02       9.99      15.99
C      10.50       9.98      14.70
C       1.22       3.57       2.04
C       0.78       3.56       0.72
C       0.67       3.61      17.51
C       2.39       5.32       0.21
C       2.83       5.36       1.55
C       2.25       4.42       2.42
C       0.46       9.88      17.46
C       0.91      11.76       0.62
C       1.82      11.99       1.67
C       2.87      11.14       1.95
C       3.06       9.96       1.20
C       2.26       9.83       0.04
C       5.63       6.12       0.14
C       5.02       7.38       0.27
C       4.89       7.60      17.22
C       6.02       7.39      16.44
C       6.64       6.13      16.32
C       6.00       5.11      17.05
C      14.23      11.80       4.66
C      13.40      11.95       3.53
C      12.45      10.94       3.31
C      12.23       9.92       4.21
C      12.95       9.86       5.43
C      14.01      10.79       5.57
C      11.44      11.21      10.54
C      12.42      10.33      10.02
C      13.72      10.53      10.52
C      14.03      11.50      11.46
C      13.06      12.40      11.92
C      11.76      12.23      11.42
C       0.38       2.75       5.79
C      16.84       3.41       6.54
C      15.51       3.06       6.21
C      15.19       2.12       5.25
C      16.19       1.40       4.59
C       0.06       1.74       4.90
C      -0.56       2.45      13.18
C      15.86       1.54      12.88
C      15.06       1.82      11.76
C      15.35       2.86      10.90
C      16.45       3.72      11.14
C      -0.31       3.52      12.35
C      15.59       6.41       7.38
C      15.47       5.64       8.55
C      14.51       6.11       9.46
C      13.73       7.24       9.24
C      13.86       8.01       8.07
C      14.81       7.54       7.15
N      16.35       4.53       8.77
N      12.98       9.12       7.85
N       3.94       7.58       1.18
N       7.75       5.94      15.45
N       6.73      -0.23       5.94
N       4.98      13.94      10.63
O      16.64       0.05      14.53
O       9.88      14.05      16.23
O      12.87      14.48      13.15
O      12.33       0.34      15.23
O      12.58       1.15      17.34
O      14.19      12.79      13.90
O      10.66      15.42      14.60
O      14.59      -0.31      13.64
O      12.11      15.79      17.04
O      14.50      15.13      15.52
O      12.44      13.75      15.65
O      14.73      -0.03      16.30
O      12.57      13.49       1.94
O       0.86      17.15       0.39
O      13.13      11.20      15.98
O      12.55       0.34       1.63
O      16.13       2.35       0.76
O      -0.93      13.37      14.81
O      16.69      13.23       1.40
O      15.49      16.75       3.40
O      15.79      11.64      16.97
O      14.95       0.91       2.70
O      11.36      11.90      17.22
O      -0.14      15.45      15.27
O      -0.38       0.95      17.04
O      10.90      15.68       1.22
O      14.59      13.89       2.91
O       0.11      15.74       2.01
O      15.49      17.01       0.56
O      14.45      14.29       0.07
O      -1.44      14.28      17.27
O      13.52      15.96       1.65
F       1.06      12.14      10.45
F       2.17      16.05      14.12
F       8.33      12.03      15.05
F       7.52      15.54      10.93
F       3.16      15.69       5.74
F       3.50       1.60       1.45
F      10.63       1.62       6.00
F       8.57      15.10       2.41
F       3.64      16.51      10.15
F       7.18      14.65       6.42
F       8.16       2.17      13.44
F      11.74       4.00       0.31
F      10.96      10.90      13.81
F       8.99       7.36      17.46
F       2.67       4.36       3.72
F       0.28       3.62      16.21
F       1.69       7.95      16.91
F       1.69      13.08       2.48
F       6.47       3.83      17.01
F       4.42       8.87      17.26
F      14.77      10.78       6.69
F      11.66      10.96       2.21
F      10.76      13.04      11.83
F      14.75       9.77      10.06
F       1.08       1.11       4.27
F      14.47       3.63       6.89
F       0.73       4.35      12.65
F      14.03       1.02      11.41
F      15.01       8.16       5.96
F      14.29       5.46      10.64
