180

Al       1.45      19.05       7.24
Al       5.38       6.36      21.71
Al       4.78      19.08       7.24
Al       2.05       6.33      21.71
H       5.14       8.30      18.13
H       1.69      17.11      10.82
H       1.69      17.11       3.66
H       5.14       8.30      25.29
H       1.80       3.05      24.09
H       5.02      22.35       4.86
H       5.02      22.36       9.62
H       1.80       3.05      19.33
H       5.03       9.87      16.20
H       1.80      15.54      12.75
H       1.80      15.54       1.73
H       5.03       9.87      27.22
H       1.66       1.36      25.91
H       5.17      24.05       3.04
H       5.17      24.05      11.44
H       1.66       1.36      17.51
H       2.20      11.46      17.33
H       4.63      13.95      11.62
H       4.63      13.95       2.86
H       2.20      11.46      26.09
H       5.46       2.72      27.41
H       1.37      22.69       1.54
H       1.37      22.69      12.94
H       5.46       2.72      16.01
H       1.73      12.82      12.64
H       5.10      12.59      16.31
H       5.10      12.59      27.11
H       1.73      12.82       1.84
H       5.14      23.59       0.33
H       1.69       1.82      28.62
H       1.69       1.82      14.81
H       5.14      23.59      14.14
H       3.28      10.85      19.24
H       2.37      10.05      20.55
H       3.32       9.08      19.43
H       3.55      14.56       9.71
H       3.51      16.33       9.52
H       4.46      15.35       8.40
H       3.55      14.56       4.76
H       4.46      15.35       6.07
H       3.51      16.33       4.95
H       3.28      10.85      24.19
H       3.32       9.08      24.00
H       2.37      10.05      22.88
H       6.52       4.56      26.59
H       6.62       4.49      24.81
H       5.64       5.72      25.56
H       0.31      20.85       2.36
H       1.19      19.69       3.39
H       0.20      20.92       4.14
H       0.31      20.85      12.11
H       0.20      20.92      10.34
H       1.19      19.69      11.09
H       6.52       4.55      16.84
H       5.64       5.72      17.86
H       6.62       4.48      18.62
H       3.12      17.29       7.24
H       3.70       8.12      21.71
H       6.47      20.84       7.24
H       0.35       4.57      21.71
C       3.11      20.65       9.08
C       3.72       4.76      19.87
C       3.72       4.76      23.55
C       3.11      20.65       5.40
C       6.44      17.42       5.44
C       0.39       7.98      23.51
C       0.39       7.98      19.91
C       6.44      17.42       9.04
C       5.96       8.99      17.94
C       0.87      16.42      11.01
C       0.87      16.42       3.46
C       5.96       8.99      25.49
C       2.61       2.96      24.82
C       4.22      22.45       4.13
C       4.22      22.45      10.35
C       2.61       2.96      18.60
C       5.90       9.87      16.86
C       0.93      15.54      12.09
C       0.93      15.54       2.38
C       5.90       9.87      26.57
C       2.53       2.02      25.84
C       4.30      23.39       3.11
C       4.30      23.39      11.36
C       2.53       2.02      17.59
C       0.30      10.75      16.62
C       6.53      14.66      12.33
C       6.53      14.66       2.14
C       0.30      10.75      26.81
C       3.58       1.90      26.76
C       3.25      23.50       2.19
C       3.25      23.50      12.29
C       3.58       1.90      16.66
C       1.40      10.74      17.49
C       5.43      14.67      11.46
C       5.43      14.67       3.02
C       1.40      10.74      25.93
C       4.67       2.78      26.66
C       2.16      22.63       2.29
C       2.16      22.63      12.19
C       4.67       2.77      16.76
C       1.48       9.87      18.58
C       5.35      15.54      10.37
C       5.35      15.54       4.11
C       1.48       9.87      24.84
C       4.77       3.74      25.65
C       2.06      21.67       3.30
C       2.06      21.67      11.18
C       4.77       3.74      17.78
C       0.41       8.97      18.79
C       6.42      16.44      10.16
C       6.42      16.44       4.32
C       0.41       8.97      24.63
C       3.72       3.81      24.70
C       3.11      21.60       4.24
C       3.11      21.60      10.23
C       3.72       3.81      18.72
C       1.15      11.81      14.45
C       5.68      13.60      14.50
C       5.68      13.60      28.93
C       1.15      11.81       0.02
C       4.57      25.28      28.08
C       2.26       0.13       0.87
C       2.26       0.13      13.60
C       4.57      25.28      15.35
C       1.01      12.77      13.45
C       5.82      12.63      15.50
C       5.82      12.63      27.93
C       1.01      12.77       1.02
C       4.42      24.40       0.19
C       2.41       1.01      28.76
C       2.41       1.01      14.67
C       4.42      24.40      14.28
C       6.61      13.69      13.44
C       0.22      11.72      15.50
C       0.22      11.72      27.92
C       6.60      13.69       1.03
C       3.34      24.49       1.09
C       3.49       0.91      27.86
C       3.49       0.91      15.56
C       3.34      24.49      13.39
C       2.68       9.97      19.49
C       4.15      15.44       9.46
C       4.15      15.44       5.02
C       2.68       9.97      23.93
C       5.95       4.67      25.65
C       0.88      20.74       3.30
C       0.88      20.74      11.18
C       5.95       4.67      17.77
I       2.75      10.45      14.24
I       4.08      14.96      14.71
I       4.08      14.96      28.71
I       2.75      10.45       0.23
I       6.18      24.92      26.76
I       0.65       0.49       2.19
I       0.65       0.49      12.28
I       6.18      24.92      16.67
O       4.24      20.31       5.87
O       2.58       5.10      23.08
O       2.58       5.10      20.34
O       4.24      20.31       8.60
O       0.91      17.80       8.60
O       5.91       7.61      20.35
O       5.91       7.61      23.08
O       0.91      17.80       5.87
O       1.98      20.28       8.61
O       4.85       5.13      20.33
O       4.85       5.13      23.09
O       1.98      20.28       5.86
O       5.31      17.83       5.88
O       1.51       7.58      23.07
O       1.51       7.58      20.36
O       5.31      17.83       8.59
O       3.12      18.26       7.24
O       3.71       7.15      21.71
O       6.45      19.87       7.24
O       0.37       5.54      21.71
