78

Al       5.69       6.93       8.12
Al       2.35       6.92       8.09
Al       2.70       0.17       0.13
Al       6.03       0.11       0.15
H       6.49       4.49       2.14
H       5.14       3.95       4.59
H       6.42       1.40       4.65
H       1.88       2.57       6.15
H       3.23       3.11       3.70
H       1.95       5.66       3.64
H       5.35       3.94      11.06
H       1.70       4.31      11.57
H       5.34       2.50      13.07
H       1.74       2.75      13.06
H       6.30      11.30       3.38
H       3.21      11.37       3.35
H       6.08       9.83       5.36
H       3.09       9.58       4.65
H       5.90      10.69      13.58
H       3.07      11.60      12.73
H       5.89       9.61      11.37
H       2.02       6.98      11.02
H       4.02       5.21       7.71
H       0.71       8.56       8.74
H       4.41       1.80       0.68
H       0.78      12.22      16.06
C       3.99       8.52       6.32
C       4.07       8.35      10.04
C       0.70       5.31       9.94
C       0.63       5.33       6.32
C       6.19       3.76       4.38
C       0.27       4.08       3.04
C       0.99       2.68       3.10
C       0.23       2.36       4.45
C       1.43       2.98       5.24
C       2.17       3.30       3.91
C       1.46       4.70       3.84
C       0.70       4.38       5.19
C       6.31       3.76      11.57
C       0.72       4.41      11.10
C       6.31       2.87      12.71
C       0.74       2.44      13.36
C       5.29      11.02       3.70
C       4.25      11.59       3.07
C       5.17      10.07       4.80
C       4.04       9.44       5.17
C       4.97      10.67      13.00
C       3.99      11.54      13.31
C       4.93       9.76      11.88
C       3.90       9.07      11.33
C       4.04      12.44      14.48
C       4.37      12.53       1.93
C       1.06       1.73       1.96
C       0.70       1.54      14.53
S       2.26       8.92      12.03
O       3.01       8.19       9.36
O       5.07       8.31       6.97
O       6.18       5.86       6.60
O       5.23       7.95       9.71
O       6.30       5.49       9.28
O       2.84       8.02       6.60
O       4.02       6.09       8.12
O       1.83       5.89       9.69
O       1.73       5.56       6.93
O       0.69       7.77       8.17
O       5.53      12.97       1.62
O       2.92      12.95      14.81
O       1.82       1.33      15.10
O       3.27      12.82       1.36
O       2.21       1.28       1.62
O       5.15      12.62      15.08
O       4.38       0.97       0.18
O       6.62       1.44       1.41
O       6.24       1.06      14.87
O       1.03      13.35       0.12
O       2.26       9.22      13.44
O       1.33       9.62      11.16
O       2.04       7.35      11.96
