220

Zn       6.13       2.63      25.84
Zn      11.71      16.08      12.58
Zn       5.97      16.08       0.68
Zn       0.40       2.63      13.95
H       4.67       0.72       1.00
H       1.69      18.00      14.27
H       7.43      18.00      25.52
H      10.41       0.72      12.26
H       3.02      18.51       1.24
H       3.34       0.21      14.50
H       9.08       0.21      25.29
H       8.76      18.51      12.02
H       1.12       2.55      24.67
H       5.24      16.17      11.41
H      10.98      16.17       1.85
H       6.86       2.55      15.11
H       3.50       3.32      24.52
H       2.87      15.40      11.26
H       8.61      15.40       2.01
H       9.24       3.32      15.27
H      10.92       1.20      25.73
H       6.92      17.52      12.46
H       1.18      17.52       0.80
H       5.18       1.20      14.06
H       7.27       4.44       1.35
H      10.57      14.27      14.61
H       4.83      14.27      25.17
H       1.53       4.44      11.91
H       7.37       6.88       1.85
H      10.47      11.84      15.11
H       4.73      11.84      24.68
H       1.63       6.88      11.41
H       5.23       7.55      24.66
H       1.13      11.17      11.40
H       6.87      11.17       1.86
H      10.97       7.55      15.12
H       5.27       5.08      24.32
H       1.10      13.63      11.05
H       6.84      13.63       2.21
H      11.00       5.08      15.47
H       6.94       9.12       1.24
H      10.90       9.59      14.50
H       5.16       9.59      25.29
H       1.20       9.12      12.03
H       6.72       0.41       2.98
H      11.12      18.31      16.25
H       5.38      18.31      23.54
H       0.98       0.41      10.28
H       8.26      18.04       5.03
H       9.58       0.67      18.29
H       3.84       0.67      21.49
H       2.52      18.04       8.23
H      10.55       2.20       2.22
H       7.30      16.52      15.48
H       1.56      16.52      24.31
H       4.81       2.20      11.05
H       9.75      18.45       9.38
H       8.10       0.27      22.64
H       2.36       0.27      17.14
H       4.01      18.45       3.88
H       8.63       0.74       7.17
H       9.21      17.98      20.43
H       3.47      17.98      19.35
H       2.89       0.74       6.09
H       1.10      15.79       7.54
H       5.26       2.92      20.80
H      11.00       2.92      18.99
H       6.84      15.79       5.72
C       3.86       1.09       0.39
C       2.51      17.62      13.65
C       8.25      17.62      26.14
C       9.60       1.09      12.87
C       2.58       0.59       0.51
C       3.79      18.13      13.78
C       9.53      18.13      26.01
C       8.31       0.59      12.75
C       1.55       1.09      26.22
C       4.82      17.62      12.96
C      10.56      17.62       0.30
C       7.28       1.09      13.56
C       1.88       2.13      25.33
C       4.48      16.59      12.07
C      10.22      16.59       1.19
C       7.62       2.13      14.46
C       3.19       2.57      25.25
C       3.17      16.15      11.98
C       8.91      16.15       1.28
C       8.93       2.57      14.54
C       0.19       0.58      26.24
C       6.18      18.13      12.97
C      11.92      18.13       0.29
C       5.92       0.58      13.55
C       6.82       5.17       0.68
C      11.02      13.55      13.94
C       5.28      13.55      25.85
C       1.08       5.17      12.59
C       6.88       6.53       0.94
C      10.97      12.19      14.20
C       5.23      12.19      25.58
C       1.14       6.53      12.32
C       6.29       7.44       0.05
C      11.55      11.27      13.31
C       5.81      11.27      26.48
C       0.56       7.44      13.21
C       5.69       6.91      25.42
C       0.67      11.81      12.16
C       6.41      11.81       1.11
C      11.43       6.91      14.37
C       5.69       5.54      25.21
C       0.68      13.18      11.95
C       6.42      13.18       1.31
C      11.43       5.54      14.57
C       6.35       8.87       0.35
C      11.49       9.85      13.61
C       5.75       9.85      26.17
C       0.61       8.87      12.91
C       8.06       2.02       1.22
C       9.79      16.70      14.48
C       4.05      16.70      25.31
C       2.32       2.02      12.04
C       8.57       1.37       2.47
C       9.27      17.35      15.73
C       3.53      17.35      24.06
C       2.84       1.37      10.80
C       7.76       0.56       3.27
C      10.08      18.15      16.53
C       4.34      18.15      23.25
C       2.02       0.56       9.99
C       8.90      18.68       4.42
C       8.94       0.03      17.68
C       3.21       0.03      22.10
C       3.16      18.68       8.84
C       9.60       0.16       4.81
C       8.24      18.56      18.08
C       2.50      18.56      21.71
C       3.86       0.16       8.45
C      10.40       0.99       4.00
C       7.45      17.73      17.26
C       1.71      17.73      22.53
C       4.66       0.99       9.27
C       9.91       1.57       2.83
C       7.94      17.14      16.10
C       2.20      17.14      23.69
C       4.17       1.57      10.43
C      11.54      16.44       9.93
C       6.30       2.28      23.19
C       0.56       2.28      16.59
C       5.81      16.44       3.33
C      11.21      17.06       8.61
C       6.64       1.66      21.87
C       0.90       1.66      17.92
C       5.47      17.06       4.65
C      10.27      18.09       8.49
C       7.57       0.62      21.75
C       1.84       0.62      18.03
C       4.53      18.09       4.77
C      10.00      18.66       7.25
C       7.84       0.06      20.51
C       2.11       0.06      19.28
C       4.26      18.66       6.01
C      10.65      18.23       6.08
C       7.19       0.49      19.34
C       1.45       0.49      20.44
C       4.91      18.23       7.18
C      11.59      17.18       6.22
C       6.25       1.53      19.49
C       0.52       1.53      20.30
C       5.85      17.18       7.04
C      11.86      16.61       7.46
C       5.98       2.11      20.72
C       0.24       2.11      19.06
C       6.12      16.61       5.80
N       4.17       2.06      26.02
N       2.19      16.65      12.76
N       7.93      16.65       0.50
N       9.91       2.06      13.76
N       6.24       4.67      26.09
N      11.60      14.04      12.83
N       5.87      14.04       0.43
N       0.50       4.67      13.69
N       0.31       1.27       4.35
N       6.05      17.44      17.61
N      11.79      17.44      22.18
N       6.05       1.27       8.91
N       0.85      16.64       5.07
N       5.52       2.08      18.33
N      11.26       2.08      21.45
N       6.58      16.64       8.19
O       6.78       1.85       1.01
O      11.06      16.87      14.27
O       5.32      16.87      25.52
O       1.04       1.85      12.25
O       8.82       2.68       0.48
O       9.02      16.04      13.74
O       3.28      16.04      26.04
O       3.08       2.68      12.78
O       0.88      15.48       9.98
O       5.49       3.24      23.24
O      11.23       3.24      16.55
O       6.62      15.48       3.29
O      10.98      16.97      10.97
O       6.86       1.75      24.23
O       1.13       1.75      15.55
O       5.24      16.97       2.29
O       0.63       1.20       5.55
O       5.73      17.51      18.81
O      11.47      17.51      20.97
O       6.37       1.20       7.71
O       1.10       1.57       3.43
O       5.27      17.14      16.70
O      11.01      17.14      23.09
O       6.84       1.57       9.83
O       1.79      15.87       5.29
O       4.57       2.85      18.56
O      10.31       2.85      21.23
O       7.53      15.87       7.97
O      11.96      16.97       3.93
O       5.88       1.75      17.19
O       0.15       1.75      22.59
O       6.22      16.97       9.33
