124

Zn       7.47      15.82       5.59
Zn      15.97       4.20       6.25
Zn      18.25       3.81       8.84
Zn      16.15       1.92       3.78
H      20.74      16.23      10.99
H      13.57       7.99      10.07
H      11.86       3.60       7.00
H      11.54       4.34       8.61
H       3.82       7.61       0.56
H       3.38       6.03       1.31
H       4.51       7.14       2.15
H      17.22       8.78       5.95
H      17.59       8.43       4.26
H      12.21       6.85      10.07
H       5.76       9.96       3.00
H       4.84       0.42       0.07
H      10.06      14.64       6.37
H       5.73       7.70       3.64
H      15.59      18.89      11.13
H       6.98      10.60       6.47
H       8.02       1.13       1.86
H       5.43      11.17       7.11
H       8.16       2.83       1.41
H      19.07       9.00       7.62
H      15.39       7.65      11.82
H       6.42       8.50       7.22
H       9.42       0.71       0.05
H       7.22      10.12       3.97
H       8.95      14.20       1.38
H      17.08      17.03       8.28
H      15.27       6.65       4.41
H       6.99       7.96       4.84
H      17.65      11.05       5.61
H      16.82      18.72      12.38
H      12.56      14.42       7.07
H      14.64       9.02       0.03
H      12.22      16.54       9.28
H       2.90      10.03       1.42
H      12.84       9.02      12.05
H      14.88      14.01       6.56
H      13.94       6.81       0.84
H      19.36      18.65      11.14
H       5.57       6.50       8.06
H       4.40      12.84       2.91
H       3.41       2.63       1.09
H      13.90       6.25       8.09
H       3.37       5.97       4.37
H       7.14      12.84       6.25
H       6.83       2.24       3.71
H      17.07      14.26       4.94
H      14.74       3.71       1.29
H       3.63      12.65       0.49
H       9.64      17.19       9.84
H      17.82      10.70       3.89
H      11.30       8.22      11.74
H      10.19       3.63       7.65
C      21.56      16.85      11.36
C       4.68       6.81       6.01
C       3.62       7.09       1.51
C      14.73       5.55      10.08
C       5.67      12.21       4.67
C       5.50       2.34       1.89
C      18.20      10.43       4.89
C      12.37       8.04      11.91
C       9.74      15.29       7.17
C      17.97       8.92       5.16
C      13.00       7.29      10.70
C       6.17       9.82       4.01
C       5.88       0.40       0.44
C       5.89      10.45       6.42
C       7.83       1.84       1.04
C       5.41      10.76       4.98
C       6.33       1.87       0.73
C       4.98       8.23       5.61
C      13.94       6.17      11.19
C       6.02       8.35       4.47
C      16.16      19.45      11.89
C      17.27      16.45       7.38
C      15.18       5.75       3.81
C       5.53       9.01       6.82
C      16.53      15.39       6.82
C      14.88       6.78      12.26
C      15.20      14.90       7.11
C      14.80       6.77       1.50
C      14.25      15.53       7.85
C      15.69       7.80       1.46
C      14.94       5.65       2.43
C      11.89      15.84       8.51
C      16.35      10.08       0.73
C      12.85      15.18       7.81
C      15.52       9.00       0.68
C      15.79       4.66      10.23
C       4.96       6.17       7.23
C       5.12      13.06       3.69
C       4.11       2.56       1.91
C      14.60       5.67       8.68
C       3.85       5.90       5.35
C       6.52      13.05       5.39
C       5.86       2.35       3.24
C      17.27      15.03       5.67
C      14.89       4.26       2.22
C       9.01      17.76      12.34
C       9.50      16.59       8.94
C      22.47      16.61      12.40
C      10.47      15.83       8.25
C      11.25       3.53       7.92
N      21.86      18.02      10.75
N       4.32       4.99       7.29
N      16.28       4.28       9.03
N       5.63      14.31       3.80
N       3.67       2.65       3.19
N      15.54       4.92       8.07
N       3.62       4.81       6.13
N       8.46      15.74       7.22
N       6.49      14.30       4.87
N       4.76       2.54       4.01
N      18.33      15.85       5.54
N      15.10       3.60       3.38
N       8.65      18.60      11.35
N       8.31      16.55       8.31
N      18.34      16.72       6.60
N      15.28       4.54       4.37
O      14.59      16.65       8.61
O      16.85       7.74       2.23
