147

Cu      15.86      14.26      17.82
Cu      17.96      14.80      15.49
Cu      15.38      16.68      15.88
Cu      15.91       4.93       2.78
Cu      18.09       4.81       5.04
Cu      15.81       2.57       4.89
Cu       4.88      15.70       2.42
Cu       2.52      15.17       4.48
Cu       4.33      17.74       4.80
Cu       5.11       3.26      18.01
Cu       2.70       3.30      15.89
Cu       4.94       1.07      15.74
H      17.05      11.67      19.10
H      20.07      12.44      16.09
H      12.97      18.15      17.35
H      13.56      14.75      19.97
H      19.35      16.27      13.08
H      15.72      18.61      13.39
H      17.06       7.23       0.95
H      20.08       7.13       4.06
H      13.31       0.92       3.78
H      13.30       4.32       1.10
H      19.62       3.90       7.65
H      16.73       0.69       7.27
H       4.24      13.46       0.23
H       1.10      12.72       3.12
H       6.74      19.78       4.38
H       7.51      16.96       1.19
H       0.60      15.49       7.00
H       2.84      19.19       7.19
H       4.43       5.85      19.69
H       1.06       5.78      16.98
H       7.32      -0.84      16.59
H       7.52       2.11      19.75
H       0.81       2.37      13.50
H       4.04      -0.49      13.14
H       0.15      10.17      17.74
H      18.62      10.18      20.12
H       0.14       9.01       2.08
H      18.62       7.44      20.29
H       2.45      10.07      20.02
H       0.13      11.25       1.52
H       2.45       7.67      20.32
H       0.14       7.70      18.29
H      11.35      17.84       0.13
H      11.71      -1.29      19.28
H       9.41      19.16      18.41
H       8.92       1.72       0.44
H      11.30       2.52       0.58
H      11.62      -0.12       2.15
H       9.01      -0.13       2.88
H       9.00      18.69       0.26
H      17.47      19.47      11.38
H      20.13      17.92      11.48
H      20.22      17.23       9.07
H       1.21      -0.52       8.86
H       2.12      -0.74      11.19
H      19.99       0.86      11.82
H      19.96       1.89       9.50
H      18.23      -0.59       8.92
C      17.67      12.04      18.29
C      18.90      11.56      17.81
C      19.20      12.43      16.75
C      13.29      17.24      17.86
C      12.80      16.66      19.04
C      13.58      15.50      19.18
C      18.40      16.71      13.33
C      17.72      17.80      12.74
C      16.54      17.90      13.49
C      17.68       7.04       1.82
C      18.90       7.64       2.20
C      19.22       6.99       3.41
C      13.49       1.84       3.23
C      12.80       2.39       2.13
C      13.48       3.58       1.87
C      18.81       3.23       7.38
C      18.44       2.00       7.96
C      17.34       1.58       7.19
C       3.57      13.44       1.08
C       2.44      12.62       1.30
C       1.96      13.06       2.55
C       6.74      18.96       3.67
C       7.64      18.71       2.61
C       7.14      17.53       2.03
C       1.28      16.32       6.87
C       1.37      17.52       7.60
C       2.42      18.22       6.97
C       3.70       5.66      18.91
C       2.50       6.32      18.63
C       1.98       5.62      17.53
C       7.21       0.00      17.25
C       7.90       0.31      18.43
C       7.30       1.50      18.88
C       1.70       1.76      13.60
C       2.14       0.68      12.82
C       3.36       0.31      13.41
C      20.02      19.74      10.27
C      20.35       8.81      20.17
C      10.28      -0.02       0.41
C      19.70      10.46      18.33
C      19.47       9.85      19.50
C      19.68       8.66       1.54
C      19.43       9.19       0.33
C       1.87      11.64       0.40
C       0.69      11.03       0.61
C       1.90       7.39      19.42
C       0.71       7.97      19.18
C      11.78      17.16      19.95
C      11.34      18.43      19.96
C       8.95      -0.50      19.04
C       9.39      -0.40      20.30
C      11.70       1.85       1.35
C      11.21       0.59       1.43
C       8.76      19.53       2.19
C       9.36      19.43       0.99
C      18.18      18.69      11.68
C      19.41      18.67      11.15
C       0.53      17.95       8.70
C       0.57      19.18       9.25
C       1.51       0.01      11.70
C       0.23       0.17      11.30
C      19.15       1.32       9.03
C      18.98       0.04       9.40
N      18.24      13.36      16.62
N      17.28      13.12      17.58
N      14.46      15.40      18.17
N      14.27      16.49      17.34
N      16.51      16.96      14.45
N      17.67      16.22      14.35
N      18.27       6.08       3.71
N      17.32       6.12       2.72
N      14.51       3.73       2.73
N      14.51       2.65       3.58
N      17.09       2.49       6.22
N      18.00       3.51       6.34
N       2.73      14.05       3.02
N       3.73      14.29       2.11
N       6.03      17.12       2.69
N       5.78      18.02       3.70
N       2.91      17.48       5.95
N       2.20      16.31       5.89
N       2.81       4.62      17.19
N       3.88       4.63      18.05
N       6.33       1.87      18.03
N       6.26       0.94      17.02
N       3.62       1.11      14.47
N       2.59       2.01      14.58
