202

Zn      12.58      14.90       8.77
Zn      18.61      -4.90       9.33
Zn      -3.31      -6.25      11.51
Zn      -2.07      -5.20       8.78
Zn      -3.33      13.09       0.81
Zn      12.59      -0.49      17.28
Zn      -2.08      10.19       0.27
Zn      18.62      10.50       0.83
H     -10.76       4.89      18.54
H      12.76       2.82      14.79
H     -10.25      13.06      13.91
H      12.25      11.08      10.33
H      18.14       7.09       3.14
H      -1.60       6.42       1.92
H      18.04      -1.37       7.24
H      -1.50      -1.56       6.90
H      -0.03      14.74       2.69
H       1.46      10.72       2.36
H       7.60      17.07       7.68
H       9.48      13.41       6.45
H       9.30      -1.20      14.88
H       7.81      -3.05      18.46
H       1.67      -4.18      10.25
H      -0.21      -5.09      14.01
H      -7.21      16.98       6.36
H      -6.23      17.13       4.96
H      16.26      11.15       2.99
H      14.76      11.39       3.78
H      -4.44      14.97       3.24
H      -4.60      15.94       4.64
H      13.93      12.86       6.61
H      14.61      11.50       5.82
H      -4.66      -5.51      14.39
H      -5.34      -5.57      15.97
H      13.71      -1.54      14.40
H      13.86      -2.21      12.83
H      -7.00      -3.36      17.76
H      -5.49      -3.90      17.14
H      16.48      -3.11      11.04
H      15.50      -1.84      11.65
H      13.12       5.86      12.81
H      12.96       4.17      12.76
H     -11.12       8.18      17.01
H     -10.96       7.32      18.47
H      11.83       7.87      11.99
H      11.65       8.72      10.53
H      -9.83       9.94      15.75
H      -9.65      11.63      15.80
H      -1.51       3.04       3.30
H      -0.65       4.23       2.43
H      18.05       4.13       5.27
H      17.19       5.50       4.73
H      -1.24       1.78       5.46
H      -0.38       0.42       6.01
H      17.78       1.63       5.19
H      16.92       0.44       6.04
H       4.39      11.39       4.42
H       3.52      10.21       3.56
H       3.07      16.01       4.14
H       1.52      16.41       3.59
H       6.69      12.42       4.33
H       8.25      12.02       4.87
H       4.36      16.14       6.30
H       5.22      17.31       7.17
H       4.88      -4.44      16.80
H       5.75      -4.34      18.26
H       6.20      -1.75      13.04
H       7.75      -1.07      12.99
H       2.58      -3.82      15.98
H       1.02      -4.49      16.03
H       4.91      -3.51      11.78
H       4.05      -3.62      10.32
C       9.88      15.67       7.84
C      18.15      -4.56      12.27
C     -10.91      13.48      11.34
C      -0.61      -5.06      11.35
C      14.93      15.17       6.92
C      -3.64      -2.87       7.85
C      12.90       2.45      17.44
C      -8.88      -2.21      16.52
C      -0.63      12.30       1.75
C      -3.64       8.16       1.75
C      18.15      12.81       2.67
C       9.90      -1.69      17.45
C      15.75      14.57       5.85
C      -6.48      13.41       3.75
C      -6.95      15.28       5.30
C      16.20      12.72       4.27
C      -6.14      14.69       4.30
C      15.44      13.27       5.33
C      17.33      -3.96      13.35
C      -8.07      -2.80      15.45
C      -6.17      -4.21      14.72
C      15.41      -2.59      14.07
C      -6.93      -3.60      15.75
C      16.22      -3.12      13.04
C      12.90       3.75      16.72
C     -10.82       4.94      17.45
C     -10.83       6.17      16.79
C     -10.91       6.20      15.37
C      12.83       4.98      14.63
C      12.82       3.76      15.32
C     -10.91       7.43      14.69
C     -10.90       8.50      14.09
C     -10.90       9.73      13.41
C     -10.52      10.92      14.10
C     -10.53      12.14      13.41
C     -10.91      12.18      12.06
C      12.54      11.01      11.38
C      12.52       9.79      12.05
C      20.18       6.86       2.48
C      19.02       6.45       3.15
C      19.01       5.23       3.84
C      20.18       4.41       3.83
C      -2.47       4.83       3.12
C      -2.48       6.06       2.46
C      -3.64       3.18       4.51
C      -3.64       2.11       5.10
C      -3.64       0.88       5.78
C      18.95       0.30       6.21
C      18.96      -0.91       6.90
C      -3.64      -1.57       7.13
C      -2.42      -1.02       6.70
C      -2.41       0.21       6.04
C       0.61      12.70       2.47
C       0.76      14.03       2.90
C       1.93      14.42       3.56
C       2.94      13.45       3.82
C       2.77      12.10       3.39
C       1.61      11.74       2.70
C       4.11      13.82       4.50
C       5.14      14.15       5.09
C       6.31      14.53       5.77
C       6.36      15.76       6.48
C       7.53      16.13       7.14
C       8.64      15.27       7.12
C       8.60      14.05       6.44
C       7.45      13.67       5.76
C       8.65      -2.09      16.73
C       8.50      -1.75      15.38
C       7.34      -2.11      14.70
C       6.33      -2.84      15.38
C       6.50      -3.19      16.75
C       7.66      -2.80      17.41
C       5.16      -3.22      14.70
C       4.13      -3.55      14.10
C       2.96      -3.92      13.43
C       2.91      -3.86      12.00
C       1.74      -4.22      11.34
C       0.63      -4.67      12.07
C       0.67      -4.74      13.47
C       1.82      -4.36      14.16
N      -6.55      16.54       5.72
N      15.77      11.47       3.82
N      -5.06      15.46       3.88
N      14.38      12.49       5.77
N      -5.11      -5.01      15.15
N      14.33      -1.82      13.64
N      -6.50      -3.90      17.05
N      15.82      -2.81      11.75
N      12.73       5.03      13.25
N     -10.73       7.37      17.48
N      12.18       8.61      11.39
N     -10.18      10.85      15.44
N      -1.34       4.03       3.15
N      17.88       4.78       4.51
N      -1.22       0.77       5.58
N      17.76       0.99       5.98
N       3.79      11.19       3.62
N       2.10      15.71       4.02
N       7.36      12.45       5.09
N       5.25      16.60       6.45
N       5.48      -3.88      17.40
N       7.16      -1.81      13.35
N       1.90      -4.45      15.54
N       4.02      -3.39      11.31
O      12.91      16.64       9.60
O      10.82      14.81       7.90
O      17.83      -4.33      11.04
O     -10.68      14.53      12.04
O       9.91      16.85       8.35
O      12.68      13.45      10.08
O      -4.65      -5.29      12.59
O      -1.55      -5.57      12.05
O      -8.56      16.33       7.38
O      -0.64      -4.87      10.09
O      13.92      14.51       7.38
O      19.06      -3.27       8.33
O      -2.52      -3.49       7.94
O      12.90      -0.73      19.20
O     -10.71       2.48      18.70
O      13.92      -1.47      16.21
O      -0.67      11.12       1.27
O      12.71       1.39      16.74
O      -1.56      13.18       1.66
O      -8.57      -2.44      17.75
O      -2.53       8.55       1.25
O      17.83      11.65       2.22
O      19.07       8.80       1.70
O      -4.65      13.47       2.22
O      10.83      -1.16      16.75
O       9.94      -1.92      18.71
