216

Zn      14.27       4.40       1.59
Zn      12.79      10.16       1.59
Zn       8.54       5.99       1.59
Zn      15.19       5.99      11.32
Zn      10.94      10.16      11.32
Zn       9.46       4.40      11.32
Zn       3.53       5.88      24.24
Zn       5.01       0.12      24.24
Zn       9.26       4.28      24.24
Zn       2.61       4.28      14.50
Zn       6.85       0.12      14.50
Zn       8.34       5.88      14.50
H      14.18       4.18       6.81
H      13.02      10.19       6.81
H       8.39       6.18       6.81
H      15.34       6.18       6.11
H      10.71      10.19       6.11
H       9.55       4.18       6.11
H       3.62       6.10      19.02
H       4.78       0.08      19.02
H       9.40       4.10      19.02
H       2.46       4.10      19.72
H       7.09       0.08      19.72
H       8.25       6.10      19.72
H      12.33       3.98      24.98
H      14.12       8.68      24.98
H       9.15       7.88      24.98
H      14.58       7.88      13.76
H       9.61       8.68      13.76
H      11.40       3.98      13.76
H       5.47       6.29       0.85
H       3.68       1.59       0.85
H       8.64       2.39       0.85
H       3.22       2.39      12.06
H       8.18       1.59      12.06
H       6.39       6.29      12.06
H       4.02       1.27       4.14
H       8.76       2.85       4.14
H       5.02       6.16       4.14
H       6.85       6.16       8.77
H       3.11       2.85       8.77
H       7.84       1.27       8.77
H      13.77       9.01      21.69
H       9.04       7.42      21.69
H      12.78       4.12      21.69
H      10.95       4.12      17.06
H      14.69       7.42      17.06
H       9.96       9.01      17.06
H      12.15       4.72       3.88
H      13.57       8.17       3.88
H       9.87       7.67       3.88
H      13.86       7.67       9.04
H      10.16       8.17       9.04
H      11.58       4.72       9.04
H       5.64       5.56      21.95
H       4.23       2.11      21.95
H       7.92       2.61      21.95
H       3.94       2.61      16.79
H       7.64       2.11      16.79
H       6.22       5.56      16.79
H      10.43       5.16       3.88
H      14.05       6.46       3.88
H      11.11       8.93       3.88
H      12.61       8.93       9.03
H       9.68       6.46       9.03
H      13.29       5.16       9.03
H       7.36       5.12      21.94
H       3.75       3.82      21.94
H       6.68       1.34      21.94
H       5.18       1.34      16.80
H       8.11       3.82      16.80
H       4.50       5.12      16.80
C       2.73       3.66       4.20
C       7.33       0.53       4.21
C       7.74       6.08       4.20
C       4.13       6.08       8.71
C       4.53       0.53       8.71
C       9.14       3.66       8.71
C      15.07       6.62      21.62
C      10.47       9.74      21.62
C      10.06       4.19      21.62
C      13.67       4.19      17.12
C      13.26       9.74      17.12
C       8.66       6.61      17.12
C       3.14       2.81       5.36
C       7.86       1.31       5.36
C       6.80       6.15       5.36
C       5.07       6.15       7.55
C       4.01       1.31       7.55
C       8.72       2.81       7.55
C      14.65       7.46      20.47
C       9.94       8.96      20.47
C      11.00       4.13      20.47
C      12.73       4.13      18.27
C      13.79       8.96      18.27
C       9.07       7.46      18.27
C       2.86       3.25       6.66
C       7.62       0.85       6.66
C       7.31       6.17       6.66
C       4.55       6.17       6.25
C       4.24       0.85       6.25
C       9.00       3.25       6.25
C      14.94       7.03      19.16
C      10.17       9.42      19.16
C      10.48       4.10      19.16
C      13.25       4.10      19.58
C      13.55       9.42      19.58
C       8.79       7.03      19.58
C      11.19       4.59       2.09
C      14.16       7.40       2.09
C      10.24       8.56       2.09
C      13.49       8.56      10.83
C       9.57       7.40      10.83
C      12.54       4.59      10.83
C       6.61       5.69      23.74
C       3.64       2.88      23.74
C       7.55       1.71      23.74
C       4.31       1.71      15.00
C       8.23       2.88      15.00
C       5.26       5.69      15.00
C      11.75       4.22       0.04
C      14.20       8.07       0.04
C       9.64       8.27       0.04
C      14.09       8.27      12.87
C       9.53       8.07      12.87
C      11.98       4.22      12.87
C       6.05       6.06      25.79
C       3.59       2.21      25.79
C       8.16       2.01      25.79
C       3.71       2.01      12.96
C       8.27       2.21      12.96
C       5.82       6.06      12.96
C       3.82       1.60       5.16
C       8.56       2.51       5.16
C       5.41       6.16       5.16
C       6.45       6.16       7.76
C       3.30       2.51       7.76
C       8.04       1.60       7.76
C      13.97       8.67      20.67
C       9.23       7.77      20.67
C      12.39       4.11      20.67
C      11.34       4.11      18.07
C      14.50       7.77      18.07
C       9.76       8.67      18.07
N      10.07       4.72       1.34
N      14.61       6.36       1.34
N      10.92       9.47       1.34
N      12.81       9.47      11.58
N       9.12       6.36      11.58
N      13.66       4.72      11.58
N       7.73       5.56      24.49
N       3.19       3.91      24.49
N       6.88       0.80      24.49
N       4.98       0.80      14.25
N       8.68       3.91      14.25
N       4.14       5.56      14.25
N      12.26       4.27       1.30
N      13.90       8.49       1.30
N       9.43       7.79       1.30
N      14.30       7.79      11.62
N       9.83       8.49      11.62
N      11.46       4.27      11.62
N       5.53       6.01      24.53
N       3.90       1.79      24.53
N       8.37       2.48      24.53
N       3.50       2.48      14.21
N       7.97       1.79      14.21
N       6.33       6.01      14.21
N      11.24       4.72       3.42
N      14.03       7.37       3.42
N      10.33       8.46       3.42
N      13.40       8.46       9.49
N       9.70       7.37       9.49
N      12.49       4.72       9.49
N       6.56       5.56      22.41
N       3.77       2.90      22.41
N       7.46       1.81      22.41
N       4.40       1.81      16.33
N       8.09       2.90      16.33
N       5.30       5.56      16.33
N      10.46       4.48       0.02
N      14.62       6.82       0.02
N      10.52       9.25       0.02
N      13.21       9.25      12.90
N       9.11       6.82      12.90
N      13.27       4.48      12.90
N       7.34       5.79      25.81
N       3.18       3.46      25.81
N       7.28       1.02      25.81
N       4.58       1.02      12.93
N       8.69       3.46      12.93
N       4.53       5.79      12.93
O       3.11       3.28       3.03
O       7.47       1.05       3.03
O       7.22       5.95       3.03
O       4.65       5.95       9.88
O       4.39       1.05       9.88
O       8.76       3.28       9.88
O      14.69       7.00      22.80
O      10.32       9.22      22.80
O      10.58       4.33      22.80
O      13.15       4.33      15.94
O      13.41       9.22      15.94
O       9.04       7.00      15.94
O      13.90       4.70       4.40
O      12.70       9.69       4.40
O       8.99       6.16       4.40
O      14.74       6.16       8.51
O      11.03       9.69       8.51
O       9.83       4.70       8.51
O       3.89       5.57      21.43
O       5.09       0.59      21.43
O       8.81       4.12      21.43
O       3.05       4.12      17.31
O       6.77       0.59      17.31
O       7.97       5.57      17.31
