114

Zn       3.47       5.21      12.94
Zn       6.35       5.16      13.00
Zn       6.20       5.24       2.08
Zn       3.32       5.16       2.01
H       7.07       5.05      17.26
H       3.00       6.29      16.93
H       2.40       6.18      23.67
H       6.43       4.82      24.00
H       8.38       5.49      23.08
H       8.07       3.77      22.81
H       9.22       4.63      21.78
H       9.42       4.80      19.95
H       8.51       3.91      18.72
H       8.77       5.65      18.55
H       1.53       7.99      22.48
H       0.51       7.76      21.05
H       0.68       6.46      22.23
H       1.96       8.03      17.97
H       1.02       6.54      18.10
H       0.72       7.88      19.22
C       4.71       2.61      12.96
C       5.10       5.39      15.52
C       4.65       7.76      12.99
C       5.14       4.96      10.42
C       4.96       2.63       2.05
C       4.22       5.15      25.39
C       4.90       7.77       2.03
C       4.63       4.92       4.59
C       0.56       5.99      12.14
C       9.26       4.34      13.79
C       9.23       6.03      12.21
C       0.59       4.37      13.79
C       4.67       9.27      12.99
C       4.69       1.10      12.97
C       4.64       9.96      11.77
C       4.71       0.41      14.18
C       4.70       0.39      11.76
C       4.67       9.97      14.19
C       6.16       5.36      17.77
C       6.11       5.45      19.17
C       7.26       5.14      20.00
C       3.85       6.07      17.58
C       3.75       6.23      18.98
C       2.56       6.76      19.61
C       3.34       5.95      23.17
C       3.49       6.17      21.79
C       2.43       6.73      20.98
C       5.63       5.18      23.35
C       5.84       5.36      21.98
C       7.13       5.08      21.37
C       5.03       5.62      17.00
C       4.87       5.85      19.78
C       4.39       5.44      23.94
C       4.74       5.81      21.19
C       5.04       4.68       8.93
C       4.75       4.62       6.07
C       3.79       4.42       8.32
C       6.03       4.58       6.68
C       3.64       4.46       6.92
C       6.17       4.71       8.08
C       9.11       6.05       2.86
C       0.42       4.37       1.24
C       0.45       6.00       2.88
C       9.08       4.40       1.23
C       4.87       9.29       2.03
C       4.98       1.12       2.05
C       4.85       9.98       3.25
C       5.00       0.43       0.84
C       4.93       0.42       3.26
C       4.90       9.99       0.83
C       8.26       4.73      22.29
C       8.56       4.86      19.28
C       1.23       7.26      21.71
C       1.51       7.33      18.69
N       1.26       5.17      12.95
N       8.56       5.18      13.01
N       8.41       5.24       2.04
N       1.11       5.17       2.06
Cl       1.37       6.97      11.03
Cl       8.44       3.25      14.78
Cl       8.36       7.16      11.31
Cl       1.46       3.40      14.87
Cl       4.62       9.07      10.30
Cl       4.70       1.30      15.66
Cl       4.71       1.25      10.27
Cl       4.71       9.10      15.68
Cl       2.42       3.97       9.27
Cl       7.46       4.28       5.77
Cl       2.03       4.30       6.31
Cl       7.77       4.94       8.68
Cl       8.29       7.14       3.86
Cl       1.24       3.32       0.21
Cl       1.31       7.00       3.93
Cl       8.22       3.39       0.19
Cl       4.82       9.09       4.73
Cl       4.71       1.04      25.25
Cl       4.88       1.28       4.75
Cl       4.52       8.84      25.24
O       3.60       3.19      12.71
O       5.82       3.15      13.20
O       6.26       5.41      14.98
O       4.00       5.19      14.91
O       5.76       7.17      12.85
O       3.50       7.24      13.11
O       4.10       5.44      10.97
O       6.24       4.74      11.01
O       6.05       3.21       2.34
O       3.85       3.16       1.76
O       3.43       5.53       0.00
O       5.65       5.09       0.14
O       3.80       7.18       2.22
O       6.04       7.26       1.85
O       5.64       5.47       4.04
O       3.53       4.68       4.00
