138

Zn       4.84       2.61      13.12
Zn      12.34       7.14       0.53
Zn      -4.43       9.87       0.57
Zn      -2.97       7.09       0.65
Zn      -4.50      -2.65       9.59
Zn       4.78      11.66       6.93
Zn      -3.13      -1.42       6.92
Zn      12.21      -1.75       7.00
H       8.58      -1.07       9.60
H      -9.38      -1.09      14.70
H       9.25       0.56       8.15
H       5.79      -1.07      11.90
H     -13.83      10.03      12.26
H     -11.48       7.73      10.95
H       1.27      10.05       4.75
H      -8.72       2.35      14.09
H      11.51      -0.09       3.65
H      11.77       3.43       2.38
H      -3.68       3.42       3.04
H       4.98       8.28       9.75
H      -7.58      11.53       5.96
H      -8.61      12.89       2.21
H      -7.19       7.98       4.45
H       0.62       1.47       8.25
H      -5.72       0.17      13.21
H      -0.77      -0.97      11.42
H       1.79       1.48      10.40
H       0.08       0.73      12.86
H      -7.55      -2.71      12.04
H       8.89      -2.62      13.00
H     -14.32       7.85      13.35
H       9.90      -3.19       9.61
H       7.26       0.55       9.40
H      -9.22       3.56      10.62
H      -0.19      12.76       4.75
H      -1.94      11.66       3.40
H       0.11       9.41       2.91
H      -4.26       2.34       4.91
H       7.60      11.88       3.16
H      -7.63       1.60      10.59
C      13.86       5.00       1.86
C     -12.95       6.74      12.21
C      -0.03      11.72       4.46
C     -13.24       5.53      13.05
C       1.05      11.10       4.97
C      -0.99      11.13       3.55
C      -0.81       9.99       2.85
C      12.57       1.86       3.66
C      13.43       1.61       4.68
C      12.68       3.08       2.87
C      13.83       3.76       2.65
C       8.69       1.41      10.97
C      -9.21      11.54       4.45
C       8.01      11.96       4.17
C      -8.36      11.02       3.37
C       2.10       1.52      13.05
C      -7.60       9.90       3.46
C      -0.18       0.57      10.10
C      -0.95      -0.48      10.46
C       0.92       1.05      10.92
C       0.94       1.06      12.27
C       2.04      11.79       5.80
C     -10.02       0.46      12.21
C      -2.02      -1.09       9.63
C     -13.56      10.45       9.62
C      13.50       0.41       5.54
C       7.03      12.44       5.19
C      -1.87       9.43       1.98
C      -7.07      -1.15       9.75
C      -6.73       9.43       2.33
C       7.32       1.00      13.09
C      -8.66       0.35      13.03
C      -7.62      -0.45      12.15
C      -8.12      -0.51      10.68
C       8.04      -0.98      11.67
C      -8.76      -0.20      14.48
C       9.94       1.21       8.75
C       6.58      -1.11      11.12
C     -11.82       6.72      11.25
C      -8.10       1.76      13.39
C      11.45       0.95       3.28
C      -8.68      11.66       5.85
C      -8.45      11.79       2.08
C      -7.70       8.95       4.61
C       9.05      -1.35      10.57
C      -0.34       1.32       8.80
C      -6.18       0.19      12.20
C      -7.37      -1.86      12.73
C       8.00      -1.98      12.86
C       9.15      -2.85      10.36
C       7.53       1.48       9.95
C      -9.67       2.90      11.38
C      -8.45       0.95      10.25
C     -13.66       9.10      11.71
C     -13.55       9.17      10.37
C     -13.67       7.87      12.47
O     -13.57       2.63      15.08
O      -3.83       0.22       6.09
O       6.22      11.55       5.61
O      -3.46       5.57       1.77
O      11.31      -0.84       8.52
O     -11.44      13.69       5.44
O      -6.29      -2.03      10.24
O     -13.69      11.54      10.28
O      12.46      -0.33       5.68
O       3.13      11.15       6.01
O      -1.89      -1.05       8.37
O       3.14       1.92      12.42
O       5.17       4.42      12.43
O       1.96       1.45      14.32
O      -2.86      10.18       1.71
O      11.54       8.22       1.99
O     -10.94       1.00      14.33
O      -5.86      10.23       1.88
O       6.25       1.33      12.48
O       0.95       5.76       0.16
O      10.51       2.15       8.22
O       6.33      -1.34       9.96
O      -1.69       8.23       1.59
O     -11.24       5.72      10.86
O      -7.04       2.17      12.95
O      10.51       1.33       2.58
O      -9.39      11.97       6.79
O      10.06      11.28       0.97
O      -8.32       9.17       5.64
O      -1.38       1.80       8.41
O      -5.56       0.44      11.18
O      -6.95      -2.05      13.85
O       7.06      -2.02      13.63
O      12.77       5.42       1.34
O       8.40      -3.65      10.90
O       6.98       2.53       9.70
O     -10.05       3.32      12.46
O     -13.42       5.74      14.29
O      -4.59      -2.54       7.64
O       1.76      12.97       6.23
O      -2.97      -1.65      10.29
O       5.02      10.34       8.35
