106

Al       6.08       6.09       8.73
Al       2.69       6.13       8.74
Al       2.61      -4.91      17.45
Al       6.00      -4.88      17.40
H       2.79       9.22      11.37
H       4.65       9.40      14.74
H       5.64       8.15      15.52
H       4.53       8.03      12.64
H       6.32       4.25       4.95
H       6.25       2.82       2.90
H       1.36       2.86       3.20
H       0.82       2.55       8.45
H       2.40       3.09       7.88
H       3.07       0.73       7.37
H       2.55       0.88       9.07
H       1.45       0.16       7.86
H       0.89       4.86       3.39
H       2.61       4.99       3.83
H       2.14       7.03       5.16
H       1.45       7.23       3.53
H       0.38       6.83       4.90
H       3.94      10.87      12.43
H       6.20       6.01      15.29
H       0.47       6.01      13.84
H       6.21       3.89      13.05
H       6.82       3.68      14.71
H       5.07       3.91      14.42
H       2.15       0.16       5.38
H       2.01      -0.70       3.83
H       6.35      -1.16       4.35
H       0.70      15.22       5.59
H       6.55      -0.32       5.91
H       4.42       7.84       8.54
H       1.00       4.92       7.56
H       4.32      15.41       0.16
H       0.85       1.39       0.95
C       4.33       4.21      10.18
C       4.42       4.75       6.73
C       1.02       8.14       7.37
C       0.95       7.35      10.76
C       6.69       8.34      12.86
C       0.94       8.28      11.92
C       1.98       9.21      12.10
C       1.99      10.16      13.13
C       0.96      10.17      14.11
C       6.73       9.23      13.94
C       5.47       8.69      14.58
C       5.36       7.73      13.31
C       0.89      14.07       2.30
C       0.90      13.15       3.12
C       0.91      12.16       4.02
C       0.94      11.24       4.85
C       0.96      10.23       5.73
C       0.99       9.30       6.52
C       4.32       3.05      11.03
C       4.29       2.06      11.77
C       4.27       1.01      12.59
C       4.26       0.04      13.36
C       4.26      -0.99      14.21
C       4.26      -1.94      14.99
C       3.24       3.01       5.27
C       4.36       3.78       5.60
C       5.44       3.67       4.71
C       5.41       2.85       3.58
C       4.28       2.10       3.24
C       3.19       2.24       4.11
C       1.68       2.22       4.04
C       1.74       3.06       5.43
C       4.24       1.32       1.98
C       4.29      -3.04      15.93
C       0.99      10.98      15.37
C       0.90      15.17       1.38
C       1.64       2.32       7.76
C       2.21       0.94       8.02
C       1.59       5.18       4.18
C       1.38       6.65       4.47
C       3.04      11.20      13.02
C       6.26       5.71      14.23
C       6.08       4.21      14.09
C       1.45      -0.12       4.58
C       0.29      -0.91       5.14
O       3.31       5.04       7.29
O       5.46       4.56       9.71
O       6.62       6.87      10.39
O       5.55       5.23       7.07
O       6.67       7.73       7.79
O       3.20       4.75       9.97
O       4.40       6.92       8.87
O       2.17       7.65       7.60
O       2.08       7.15      10.22
O       1.00       5.37       8.43
O       5.44      -3.46      16.26
O       3.09       0.98       1.54
O       2.05      15.60       1.05
O       3.16      -3.45      16.35
O       2.11      11.21      15.90
O       5.37       1.07       1.43
O       4.37      11.36      17.32
O       6.63      11.29      15.84
O       6.54      15.60       1.01
O       0.85       0.82       0.17
O       1.05       2.42       6.43
O       1.31       4.44       5.39
O       2.96      12.35      13.44
O       5.22       6.35      13.47
O       0.92       1.06       3.94
