120

Al      12.41       7.46      12.97
Al       1.29       4.76      13.39
Al       2.78       7.37      13.35
Al      11.25       0.91       0.56
Al       8.07       0.95       0.10
Al       9.51       3.58       0.13
H       3.26       3.47       7.68
H       3.31       7.98      22.35
H       2.13       8.93      19.39
H      10.30       2.50      18.64
H       9.07       6.62      18.31
H       3.83       3.06       5.30
H       3.64      11.51      21.10
H       8.28       6.56      20.67
H       7.80       4.61       6.02
H       9.25       5.83       8.77
H      12.26      12.13      18.33
H       3.81       2.22      21.85
H      10.33       8.41      13.45
H       6.75      11.07       0.07
C      12.41       4.99      11.22
C      15.13      10.08       4.83
C      15.02       9.86       6.14
C       3.65       5.14      11.84
C      14.92       9.69       7.36
C      14.80       9.46       8.67
C      14.68       9.23       9.87
C      11.52       3.84       3.59
C      11.63       4.00       4.80
C      11.75       4.14       6.12
C      11.84       4.25       7.35
C       6.81       4.35       6.38
C      11.96       4.40       8.67
C      12.10       4.57       9.88
C       3.74       4.94      23.24
C      14.49       8.73      11.20
C       3.64       5.08      22.03
C       3.55       5.21      20.69
C       3.50       5.28      19.46
C       3.45       5.32      18.12
C       3.37       5.35      16.90
C      14.00       9.78      16.17
C       6.50       4.55       7.73
C      12.71      11.48      19.07
C      12.39      11.67      20.42
C      13.92       9.87      21.03
C      14.23       9.69      19.68
C      11.82       5.19      14.90
C      13.60      10.46      18.68
C      12.97      10.85      21.43
C      12.71      11.11      22.79
C      13.83      10.16      17.32
C      12.49      11.48      23.92
C       5.20       4.24       8.21
C      11.00       4.83      16.02
C       9.86       3.39      19.09
C       9.39       3.34      20.40
C       8.72       5.68      20.21
C       9.16       5.71      18.90
C       3.09       5.49      15.49
C       9.78       4.58      18.34
C       8.86       4.52      21.00
C       8.55       4.60      22.38
C      10.40       4.67      17.07
C       5.85       3.82       5.49
C       8.34       4.79      23.56
C      15.44      10.82       2.30
C       7.20       3.11       1.74
C      11.24       3.40       2.25
C      12.34      12.20      25.15
C       4.06       4.68      24.63
C      14.08       9.06      14.93
C       7.97       4.74      24.95
C       4.31       4.74      10.64
C       4.25       3.71       7.31
C       6.21       3.60       4.14
C       4.57       3.48       5.98
C       9.46       2.07      21.17
C       7.54       5.03       8.68
C       5.21       1.63      20.71
C       1.75       9.02      22.05
C       4.79       4.50       9.54
C       6.57       3.41       2.98
C      15.23      10.32       3.63
O      13.30       8.48      11.55
O       8.09       3.94       1.33
O      10.60       4.22       1.48
O      12.00       6.13      11.56
O       8.37       3.76      25.63
O      13.40      12.56      25.74
O      11.13      12.49      25.52
O       3.75       3.53      25.08
O       4.68       5.61      25.25
O       7.19       5.69      25.37
O       9.58       1.83       0.25
O       2.36       4.58      14.97
O       0.31       4.18      11.92
O       2.80       4.32      12.36
O       3.91       6.31      12.29
O      15.55       8.53      11.90
O      12.99       8.71      14.40
O      11.63       6.34      14.40
O      12.70       4.32      14.51
O       8.89       1.85      22.23
O       3.69      12.32      20.54
O       7.44       4.95       9.90
O       3.52       6.54      14.91
O       8.62       5.56       8.06
O       5.26       2.68      20.08
O      10.60      12.58      21.69
O       1.28       8.73      23.14
O       2.98       8.57      21.64
O       2.45       8.79      14.51
O      14.06       6.52      13.25
O      11.61       2.23       1.96
O      16.63      11.08       1.97
O      14.38      11.00       1.58
O       6.90       2.01       1.15
O      10.91       8.31      12.69
O      -0.04       0.13       0.86
