95

Al       0.83       5.42       8.92
Al       4.33       5.45       8.93
Al       4.09      16.25       0.05
Al       0.62      16.23       0.02
H       4.61       8.60      14.37
H       0.97       7.05      14.90
H       0.15       0.67       6.51
H       4.37       5.81      13.47
H      -0.18      10.23      12.72
H       4.01       0.63       5.63
H       3.83       4.64       2.55
H       6.05       4.91       2.17
H       1.47       4.87       3.40
H       2.41       2.80       5.72
H       1.91      11.09      12.06
H       4.71       9.94      11.79
H       2.59       3.68       9.00
H       6.11       7.09       9.49
H       2.55       1.29       1.06
H       5.84      14.53       0.25
C       2.54       6.71      10.93
C       2.60       7.30       7.47
C       6.10       4.35       6.81
C       6.04       3.52      10.35
C       6.05       2.43      11.30
C       6.05       1.50      12.10
C       6.03       0.48      12.96
C       6.01      -0.47      13.76
C       5.98      -1.50      14.62
C       5.95      -2.44      15.40
C       5.20       1.73       4.63
C       6.43       2.15       5.50
C       6.08       3.67       5.47
C       4.81       3.37       4.61
C       5.69       3.45       3.32
C      -0.05       3.85       4.14
C       0.33       2.30       4.19
C       6.06       1.94       3.34
C       3.19       8.98      12.45
C       1.88       9.48      13.10
C       2.32       8.97      14.51
C       3.65       8.46      13.88
C       2.96       7.08      13.59
C       1.62       7.59      14.21
C       1.19       8.11      12.79
C       2.49       7.58      12.13
C       2.57       8.38       6.53
C       2.51       9.32       5.74
C       2.46      10.35       4.88
C       2.41      11.30       4.10
C       2.37      12.33       3.24
C       2.35      13.26       2.45
C       2.35      14.34       1.50
C       2.25       9.74      15.78
C       5.95      -3.53      16.34
C       6.05       1.14       2.08
S       6.59       8.17      12.07
S       3.65       4.69       4.69
S       1.82       1.39       4.16
O       3.75       6.84       7.76
O       1.41       6.24      10.56
O       0.20       3.88       9.90
O       1.47       6.92       7.93
O       0.26       4.64       7.26
O       3.68       6.49      10.42
O       2.59       4.63       8.77
O       4.97       4.46       7.39
O       4.89       3.99      10.08
O       6.08       6.19       9.10
O       1.10      10.00      16.25
O       3.50      14.76       1.14
O       4.91       0.86       1.61
O       3.38      10.06      16.28
O       4.80      -3.94      16.73
O       1.20      14.75       1.12
O       2.56       0.72       0.27
O       0.11      -3.97      16.69
O       0.21       0.89       1.58
O       5.73      10.13      17.70
O       6.76       1.56       6.69
O       3.48       5.84      13.87
O       6.68       8.52      10.68
O       5.75       7.10      12.52
O       6.08       9.52      12.83
O       4.55       0.57       4.81
O       2.51       4.39       5.54
O       4.39       5.91       4.88
O       3.06       4.72       3.19
O       5.38       4.19       2.18
O       0.52       4.99       3.66
O       1.51      -0.01       4.27
O       2.67       1.90       3.11
O       2.37       1.79       5.62
O       1.37      10.74      12.79
O       3.77       9.83      11.54
