60

Cu       3.94       6.90       6.91
Si       7.88       6.88       6.89
H       6.01       9.07       6.92
H       6.09      11.55       6.89
H       1.83       9.05       6.99
H       6.05       4.73       7.00
H       1.87       4.72       6.91
H       1.79       2.24       6.89
H       6.01       6.91       4.73
H       6.09       6.88       2.25
H       1.84       6.99       4.74
H       6.05       6.97       9.06
H       1.87       6.90       9.08
H       1.80       6.87      11.56
C       5.09       9.65       6.90
C       5.13      11.04       6.88
C       3.92      11.77       6.83
C       2.73      11.01       6.87
C       2.76       9.63       6.94
C       3.94      13.18       6.81
C       3.94       0.61       6.81
C       3.96       2.02       6.84
C       5.15       2.77       6.88
C       5.12       4.16       6.94
C       2.79       4.14       6.90
C       2.76       2.75       6.87
C       5.09       6.90       4.15
C       5.13       6.87       2.76
C       3.93       6.83       2.03
C       2.74       6.88       2.79
C       2.76       6.94       4.17
C       3.94       6.81       0.62
C       3.95       6.79      13.19
C       3.96       6.81      11.78
C       5.15       6.85      11.02
C       5.12       6.92       9.64
C       2.79       6.89       9.66
C       2.76       6.86      11.05
N       3.93       8.96       6.93
N       3.95       4.83       6.93
N       3.93       6.92       4.84
N       3.96       6.91       8.97
N       1.42      11.67       6.83
N       6.46       2.12       6.84
N       1.42       6.84       2.13
N       6.47       6.81      11.68
O       1.26      12.56       5.99
O       0.56      11.26       7.63
O       6.62       1.23       5.99
O       7.31       2.51       7.66
O       1.26       5.99       1.24
O       0.58       7.65       2.53
O       6.62       5.97      12.57
O       7.32       7.61      11.27
F       6.15       6.88       6.89
F       1.73       6.88       6.90
F       7.88       8.08       8.10
F       0.00       5.67       5.68
F       7.89       8.09       5.69
F      -0.01       5.68       8.10
