148

Zn       5.75       6.81      16.38
Zn       5.75       8.41       1.79
Zn       5.75       0.80       7.30
Zn       5.75      14.43      10.87
H       5.75       0.43       3.04
H       5.75      14.79      15.13
H       5.75       7.18      12.12
H       5.75       8.04       6.05
H       5.75       3.11      17.80
H       5.75      12.12       0.37
H       5.75       4.51       8.72
H       5.75      10.72       9.46
H       5.75       4.68       3.65
H       5.75      10.54      14.52
H       5.75       2.93      12.74
H       5.75      12.29       5.44
H       3.48       4.91      17.30
H       3.48      10.31       0.87
H       8.02       2.70       8.22
H       8.02      12.52       9.96
H       8.02      10.31       0.87
H       8.02       4.91      17.30
H       3.48      12.52       9.96
H       3.48       2.70       8.22
H       1.00       4.80      17.31
H       1.00      10.42       0.86
H      10.49       2.81       8.23
H      10.49      12.41       9.95
H      10.49      10.42       0.86
H      10.49       4.80      17.31
H       1.00      12.41       9.95
H       1.00       2.81       8.23
H       1.00       8.76      15.54
H       1.00       6.46       2.63
H      10.50      14.08       6.45
H      10.50       1.15      11.72
H      10.50       6.46       2.63
H      10.50       8.76      15.54
H       1.00       1.15      11.72
H       1.00      14.08       6.45
H       3.47       8.67      15.59
H       3.47       6.55       2.58
H       8.03      14.16       6.51
H       8.03       1.06      11.67
H       8.03       6.55       2.58
H       8.03       8.67      15.59
H       3.47       1.06      11.67
H       3.47      14.16       6.51
C       5.75       2.53       3.49
C       5.75      12.69      14.68
C       5.75       5.08      12.57
C       5.75      10.14       5.60
C       5.75       1.43       2.62
C       5.75      13.79      15.55
C       5.75       6.18      11.70
C       5.75       9.05       6.47
C       5.75       1.62       1.22
C       5.75      13.60      16.95
C       5.75       5.99      10.31
C       5.75       9.23       7.87
C       5.75       2.93       0.71
C       5.75      12.29      17.46
C       5.75       4.68       9.79
C       5.75      10.54       8.38
C       5.75       4.03       1.58
C       5.75      11.20      16.59
C       5.75       3.59      10.67
C       5.75      11.64       7.50
C       5.75       3.83       2.97
C       5.75      11.40      15.20
C       5.75       3.78      12.05
C       5.75      11.44       6.12
C       5.75       2.30       4.98
C       5.75      12.92      13.19
C       5.75       5.31      14.07
C       5.75       9.91       4.10
C       5.75       5.41       1.01
C       5.75       9.81      17.16
C       5.75       2.20      10.10
C       5.75      13.02       8.07
C       5.75       0.49       0.36
C       5.75      14.73      17.81
C       5.75       7.12       9.44
C       5.75       8.11       8.73
C       2.87       5.74      16.93
C       2.87       9.48       1.25
C       8.62       1.87       7.84
C       8.62      13.35      10.33
C       8.62       9.48       1.25
C       8.62       5.74      16.93
C       2.87      13.35      10.33
C       2.87       1.87       7.84
C       1.48       5.69      16.92
C       1.48       9.53       1.25
C      10.01       1.92       7.84
C      10.01      13.31      10.33
C      10.01       9.53       1.25
C      10.01       5.69      16.92
C       1.48      13.31      10.33
C       1.48       1.92       7.84
C       0.74       6.78      16.43
C       0.74       8.44       1.74
C      10.75       0.83       7.35
C      10.75      14.39      10.82
C      10.75       8.44       1.74
C      10.75       6.78      16.43
C       0.74      14.39      10.82
C       0.74       0.83       7.35
C       1.48       7.87      15.94
C       1.48       7.35       2.23
C      10.01      14.96       6.86
C      10.01       0.26      11.31
C      10.01       7.35       2.23
C      10.01       7.87      15.94
C       1.48       0.26      11.31
C       1.48      14.96       6.86
C       2.87       7.84      15.97
C       2.87       7.38       2.20
C       8.62      14.99       6.89
C       8.62       0.23      11.28
C       8.62       7.38       2.20
C       8.62       7.84      15.97
C       2.87       0.23      11.28
C       2.87      14.99       6.89
N       3.56       6.80      16.47
N       3.56       8.42       1.70
N       7.93       0.81       7.38
N       7.93      14.41      10.79
N       7.93       8.42       1.70
N       7.93       6.80      16.47
N       3.56      14.41      10.79
N       3.56       0.81       7.38
O       5.75       5.51      17.92
O       5.75       9.71       0.25
O       5.75       2.10       8.83
O       5.75      13.12       9.34
O       5.75       6.38       1.84
O       5.75       8.84      16.33
O       5.75       1.23      10.93
O       5.75      13.99       7.24
O       5.75       1.05       5.33
O       5.75      14.17      12.84
O       5.75       6.56      14.42
O       5.75       8.66       3.76
O       5.75       3.26       5.78
O       5.75      11.96      12.39
O       5.75       4.35      14.86
O       5.75      10.87       3.31
