166

Zn      25.14      18.01      14.07
Zn      17.99       7.69       1.08
Zn      17.91      10.87       0.95
Zn      10.47      18.10      13.87
Zn      10.61      18.48       0.94
Zn      17.79      25.75      14.00
Zn      17.88      10.38      13.90
Zn       7.39      18.57       1.06
H       7.08      18.34       5.32
H      11.33      18.37       4.85
H      10.67      18.16       9.65
H       6.42      18.23      10.13
H      18.00      10.74       9.73
H      17.96       6.47      10.03
H      18.04       7.34       5.25
H      17.90      11.61       4.95
H      23.97      22.59      13.46
H      24.56      23.21      15.01
H      22.96      24.92      14.90
H      22.35      24.26      13.38
H      13.20      15.29       1.89
H      11.89      14.11       1.93
H      14.75      13.53       1.96
H      13.43      12.36       1.94
H      22.09      20.88      13.43
H      21.43      20.26      14.94
H      19.84      21.98      14.97
H      20.46      22.56      13.43
H      11.64      13.41      13.36
H      11.05      12.88      14.94
H      12.64      11.17      14.94
H      13.24      11.72      13.36
H       4.74       3.29       1.84
H       6.04       4.48       1.80
H       3.17       5.03       1.83
H       4.48       6.21       1.76
H      13.50      15.14      13.23
H      14.18      15.81      14.70
H      15.78      14.10      14.74
H      15.10      13.44      13.26
H      24.36      13.17      13.97
H      23.23      14.26      13.16
H      21.65      12.54      13.08
H      22.79      11.46      13.91
H      20.07      13.97      14.40
H      11.19       5.09       0.95
H      21.65      15.69      14.52
H      12.79       6.77       1.06
H      15.52       4.23       1.30
H      14.41       5.22       2.24
H      12.81       3.52       2.15
H      13.92       2.53       1.22
H      11.28      23.04      13.76
H      12.47      22.05      12.90
H      13.96      23.85      12.97
H      12.79      24.80      13.90
H      15.58      22.33      14.16
H       6.76      13.45       0.70
H      14.04      20.56      14.14
H       5.19      11.72       0.69
H       2.41      14.21       1.09
H       3.50      13.16       1.98
H       5.11      14.85       2.04
H       3.99      15.92       1.22
H       5.65      18.69       6.65
H       5.05      18.50       8.22
H      12.10      18.62       8.35
H      12.70      18.52       6.77
H      17.52      12.21       8.48
H      17.65      12.89       6.93
H      17.54       5.87       6.50
H      17.71       5.19       8.05
C      15.38       6.69       0.09
C      18.00       9.36       3.50
C      24.16      20.57      15.21
C      11.43      20.65      14.97
C       8.72      18.13      11.49
C      11.45      15.53      15.04
C      20.30      24.69      15.14
C      17.99       8.72      11.47
C      20.37      11.37      15.13
C      15.33      11.40      15.07
C       9.05      18.41       3.48
C      15.24      24.84      15.09
C       8.06      18.35       5.79
C      10.48      18.35       5.53
C      10.67      18.32       6.90
C       9.53      18.28       7.78
C       9.69      18.22       9.18
C       7.27      18.24       9.45
C       7.08      18.30       8.08
C       8.21      18.31       7.20
C       9.18      18.36       4.97
C       8.57      18.20      10.00
C      17.97       9.78       9.21
C      17.96       7.35       9.38
C      17.94       7.22       8.00
C      17.95       8.39       7.17
C      17.98       8.30       5.77
C      17.92      10.73       5.59
C      17.90      10.86       6.97
C      17.94       9.69       7.80
C      17.98       8.63       9.98
C      17.97       9.45       4.99
C      23.66      22.88      14.48
C      22.59      24.01      14.43
C      21.30      23.55      15.15
C      12.81      14.39       1.39
C      13.84      13.24       1.42
C      23.08      21.64      15.20
C      21.82      21.17      14.46
C      20.75      22.30      14.45
C      11.95      13.18      14.39
C      13.01      12.05      14.39
C      14.32      12.54      15.06
C       5.12       4.16       1.29
C       4.07       5.31       1.28
C      12.53      14.46      15.04
C      13.78      14.89      14.26
C      14.84      13.76      14.28
C      23.34      13.58      14.02
C      22.29      12.44      13.96
C      12.55       3.68       0.01
C      11.85       5.06       0.07
C      12.91       6.19       0.14
C      14.33       5.59       0.11
C      14.50       4.64       1.31
C      13.44       3.52       1.25
C      12.31      22.66      13.80
C      13.32      23.84      13.86
C      14.22      23.71      15.12
C      14.94      22.34      15.05
C      13.91      21.19      15.03
C      12.48      21.75      15.05
C       3.43      13.81       1.09
C       4.47      14.94       1.15
N       5.79      18.29       7.57
N      11.96      18.26       7.41
N      17.90      12.12       7.55
N      17.95       5.96       7.43
O       8.93      18.05      15.09
O      24.06      16.42      14.44
O      18.04       8.19       2.98
O      16.33      12.00       0.71
O      16.36       6.60       0.90
O      23.97      19.53      14.49
O      17.98      10.47       2.86
O       1.54      12.00       0.49
O       9.90      18.12      11.98
O      11.64      19.67      14.18
O       7.63      18.09      12.16
O       1.63       6.55       0.64
O      11.58      16.50      14.22
O      17.79       8.83      15.10
O      11.78      16.97       0.50
O      18.07       7.62      12.11
O      19.46      11.51      14.25
O      19.18      24.48      14.55
O      11.64       1.58       0.71
O      17.92       9.89      11.99
O      16.29      11.48      14.24
O       7.88      18.55       2.98
O       6.26       1.63       0.67
O      10.14      18.31       2.83
O      16.10      24.79      14.15
O       6.31      16.94       0.77
