216

Zn       7.57       8.96      15.57
Zn      27.05      10.77      18.23
Zn       9.01      11.84      15.70
Zn      25.51      11.71      15.62
Zn      18.38       7.28       8.84
Zn      16.87       4.42       8.69
Zn      18.62       5.45       6.21
Zn      20.07       4.54       8.89
Zn      16.19      16.30      22.43
Zn      17.71      15.37      25.10
Zn      15.95      18.05      25.10
Zn      14.50      15.19      24.93
Zn      17.70       4.96      31.99
Zn      14.49       4.85      31.83
Zn      24.82      19.82      31.82
Zn      18.40      17.64       1.96
H      23.11       5.79      11.43
H      20.82       9.45      11.42
H       5.09       6.85      12.99
H      11.47      13.35      22.78
H      13.77      14.77      19.41
H       9.82      12.32      21.19
H      13.32       5.60      11.10
H      19.27      14.82      19.56
H      16.22      19.70      19.58
H      29.22      18.54      11.32
H      12.20       1.49       4.97
H      14.47       2.91       1.59
H      13.87       2.53       6.51
H      18.36      14.22       4.83
H       4.68       2.66       1.32
H      22.37      17.65      29.25
H      11.45       3.62      29.25
H      20.69      16.64      27.68
H      13.98       8.52      29.35
H      21.24       3.77      29.58
H      23.11      10.99      13.62
H      11.48      13.35      17.13
H      16.87       4.40       3.72
H      17.70      19.94      27.05
C       7.46       7.82      18.28
C       9.87      12.35      18.53
C      10.16       9.52      14.28
C      27.09      13.84      14.28
C      24.71       9.31      14.01
C      24.43      12.15      18.29
C      15.76       6.74      10.13
C      16.07       3.90       5.87
C      18.48       8.41       6.12
C      21.19       4.07       6.17
C      20.87       6.94      10.41
C      18.47       2.40      10.14
C      18.80      14.93      22.39
C      18.50      17.76      26.67
C      16.10      19.25      22.40
C      13.38      17.54      26.39
C      13.71      14.73      22.12
C      16.12      13.23      26.39
C      16.08       6.97      30.54
C      22.32      20.16      30.27
C      27.44      20.33      30.54
C      18.48      14.69       2.00
C      12.25       1.51       2.26
C       7.13       1.33       2.00
C      23.72       8.73      13.08
C      21.87       7.56      11.33
C      22.60       9.48      12.63
C      22.98       6.82      11.77
C      21.68       8.88      11.76
C      23.89       7.40      12.64
C      10.86      12.97      19.43
C      12.71      14.12      21.18
C      11.99      13.67      18.91
C      11.60      13.43      21.70
C      12.91      14.24      19.81
C      10.69      12.86      20.82
C      12.44       9.64      13.05
C      13.52       6.64      11.36
C      11.27       9.00      13.47
C      14.67       7.29      10.95
C      12.70       7.49      12.12
C      13.25       8.78      12.28
C      23.20      12.68      20.50
C      20.02      14.38      20.21
C      23.34      12.68      19.12
C      19.90      14.37      21.59
C      21.22      13.76      19.81
C      21.99      13.30      20.90
C       7.38       6.48      20.50
C       7.52       2.88      20.22
C       7.45       6.61      19.11
C       7.45       2.79      21.60
C       7.49       4.23      19.82
C       7.41       5.13      20.90
C      25.98      15.74      12.92
C      28.20      18.20      11.47
C      27.06      15.06      13.46
C      27.11      18.87      10.95
C      27.80      17.06      12.19
C      26.40      16.88      12.19
C      15.11       3.30       4.93
C      13.24       2.14       3.19
C      15.28       3.41       3.52
C      13.06       2.03       4.58
C      14.34       2.82       2.67
C      13.99       2.60       5.43
C      18.54       9.75       3.90
C      18.42      13.35       4.18
C      18.48       9.62       5.28
C      18.48      13.45       2.80
C      18.44      12.00       4.58
C      18.52      11.10       3.50
C       3.81       2.89       5.80
C       4.89       2.50       2.38
C       2.64       3.52       5.39
C       6.04       1.87       2.82
C       4.07       2.87       3.46
C       4.62       2.52       4.71
C      19.46      18.40      27.59
C      21.33      19.54      29.34
C      19.29      19.73      28.04
C      21.51      18.22      28.90
C      20.24      20.29      28.91
C      20.58      17.66      28.04
C      17.23      11.32      27.75
C      15.00       8.87      29.21
C      16.14      12.01      27.21
C      16.10       8.20      29.73
C      15.41      10.01      28.48
C      16.81      10.18      28.47
C      30.77      17.42      27.63
C      29.69      20.43      29.32
C      31.93      18.05      27.20
C      28.54      19.77      29.73
C      30.51      19.57      28.55
C      29.96      18.28      28.40
S      11.19       7.35      12.93
S      14.77       8.95      11.49
S      22.00      13.43      18.31
S      21.24      13.62      22.41
S       7.54       5.06      18.31
S       7.36       4.32      22.41
S      28.59      15.81      13.08
S      25.58      18.12      11.32
S      18.39      11.16       6.09
S      18.57      11.91       1.99
S       2.55       3.66       3.65
S       6.14       1.72       4.55
S      14.62      11.25      27.59
S      17.62       8.95      29.35
S      32.02      19.71      27.75
S      28.44      18.12      29.19
Br      12.96      11.41      13.40
Br      24.39      11.98      21.77
Br       7.28       7.87      21.76
Br      24.16      15.30      13.07
Br      18.63       8.36       2.64
Br       4.33       2.52       7.57
Br      19.05      11.76      27.60
Br      30.25      15.65      27.28
O       7.45      10.80      16.26
O       7.53       7.63      17.01
O       8.89      11.73      19.04
O      10.23      10.73      14.65
O       7.40       8.94      18.88
O       9.21       8.69      14.53
O      10.06      12.48      17.25
O       8.59      13.44      14.65
O      24.50      10.54      14.40
O      25.97      13.30      14.56
O      25.70       8.61      14.38
O      25.41      11.61      18.89
O      24.28      12.28      17.02
O      18.47       5.43       8.16
O      16.72       7.55       9.86
O      15.86       3.78       7.12
O      18.56       7.29       5.53
O      15.65       5.52       9.77
O      18.40       8.61       7.39
O      17.09       4.52       5.36
O      20.24       4.60       5.50
O      21.09       5.73      10.07
O      21.27       3.97       7.44
O      19.89       7.67      10.03
O      17.33       2.84       9.77
O      19.62       2.92       9.90
O      16.09      16.24      24.39
O      17.85      15.48      21.75
O      18.71      16.57      26.29
O      16.01      19.40      23.67
O      18.91      14.80      23.66
O      16.18      18.15      21.76
O      17.48      18.48      26.29
O      14.33      18.37      26.15
O      13.50      14.58      23.37
O      13.31      16.33      26.01
O      14.69      15.36      21.59
O      17.24      13.77      26.12
O      14.96      13.63      26.02
O      16.09       3.96      32.54
O      17.23       6.52      30.90
O      22.11      21.37      30.64
O      26.48      19.53      30.80
O      14.94       6.47      30.81
O      18.90       3.85      30.90
O      23.31      19.43      30.63
O      18.55      14.53       0.73
O      11.26       0.89       2.79
O      18.42      15.79       2.64
O      12.47       1.64       1.00
O       7.02       1.47       0.73
O       8.10       0.77       2.63
O      22.36      10.75      13.00
O      12.23      13.81      17.59
O      16.32       4.06       2.96
O      18.25      20.51      27.66
