55

Al       4.40      11.06       6.98
H       2.94       9.13      13.27
H       0.95      17.28       5.50
H       3.35       7.11       1.83
H       3.14       6.98       6.77
H       3.88       4.95       5.50
H       3.25      13.38       3.50
H       2.80      15.42       2.11
H       1.54      13.07      10.60
H       1.32      13.09      13.10
H       2.47       8.18      10.06
H       4.03       8.98       9.83
H       3.74       8.03      11.31
H       1.33       9.60       2.85
H       2.86      10.35       3.30
H       2.75       9.39       1.80
H       4.18      14.75       7.41
H       1.89      14.84       7.98
H       1.00      16.34       7.60
C       2.42      11.06       9.05
C       2.48       9.34       5.86
C       2.41      12.86       5.97
C       2.36      11.08      10.55
C       2.27      14.16       5.25
C       2.77       8.15       5.01
C       2.75       9.94      11.28
C       2.63       9.98      12.67
C       1.64      15.27       5.86
C       1.44      16.40       5.07
C       2.80       8.21       3.60
C       3.27       7.08       2.91
C       3.15       6.98       5.68
C       3.57       5.86       4.98
C       2.73      14.24       3.92
C       2.48      15.37       3.15
C       1.86      12.21      11.20
C       1.73      12.23      12.58
C       2.11      11.11      13.33
C       1.03       3.77       0.95
C       1.82      16.46       3.72
C       1.19       2.68       2.93
C       3.67       5.92       3.58
C       0.29       4.76       2.86
C       3.28       8.71      10.58
C       2.42       9.45       2.84
C       1.17      15.30       7.29
N       1.44       2.67       1.61
N       0.62       3.69       3.60
N       0.45       4.85       1.53
O       3.37      12.07       5.68
O       3.36      11.70       8.49
O       3.32       9.54       6.81
O       1.52      12.60       6.85
O       1.48      10.08       5.63
O       1.50      10.41       8.45
