80

Zn       5.63       6.01       8.14
Zn       5.74       8.85       8.03
H      10.16       8.70       6.22
H       5.27      13.88       4.77
H       5.66      12.39       5.60
H       8.48       0.97      10.54
H       8.17       2.46       9.62
H       8.11       2.49      11.39
H       5.80       2.49      10.51
H       6.10       1.01      11.40
H       8.48      12.07       9.21
H       8.76      12.08      10.95
H       9.12      13.53       9.98
H       1.22       6.16       9.95
H       6.96      13.78      11.29
H       6.32      12.34      10.50
H       6.49       2.66       5.41
H       6.30       1.16       4.46
H       5.41       2.64       4.01
H       3.86       1.06       5.17
H       4.07       2.52       6.11
H       5.40       5.16       1.18
H       6.01       9.68      14.98
H       5.59       5.39      14.86
H       5.83       9.45       1.30
H       3.36      12.32       6.64
H       2.95      13.85       5.84
H       3.27      12.38       4.87
C       5.57       7.33       5.48
C       5.60       7.30       1.40
C       3.11       7.66       8.18
C       8.27       7.21       7.99
C       5.55       7.29       4.04
C       5.84       7.55      12.12
C       5.05       0.79       6.93
C       6.45      14.06       9.23
C       5.96       0.75       9.28
C       5.54      14.10       6.89
C       5.48       1.42       8.12
C       5.80       7.51      10.68
C       6.01      13.43       8.04
C       0.81       7.01       6.93
C      10.56       7.85       9.24
C      10.84       6.11       7.92
C       0.54       8.76       8.25
C      10.60       8.14       7.05
C       0.77       6.72       9.12
C       9.76       7.25       8.02
C       1.61       7.62       8.15
C       5.44       2.84       8.16
C       5.83       7.56      13.34
C       6.00      12.01       8.01
C       5.07      13.31       5.69
C       3.58      12.95       5.77
C       6.37       1.55      10.49
C       7.87       1.88      10.51
C       6.99      13.21      10.36
C       8.42      12.70      10.10
C       4.59       1.62       5.75
C       5.77       2.04       4.86
C       5.57       7.28       2.82
C       5.66       6.31      15.44
C       5.75       8.53       0.72
C       5.51       6.11       0.65
C       5.90       8.73      15.51
C       5.80       7.54      14.76
I       1.69       6.40       5.12
I       9.68       8.47      11.06
I      10.48       4.04       7.68
I       0.89      10.82       8.49
N       5.97      10.85       7.98
N       5.42       4.00       8.19
O       5.56       6.21       6.09
O       5.78       8.63      10.07
O       5.79       6.35      10.16
O       5.61       8.49       6.00
O       3.64       6.51       8.26
O       7.73       8.36       7.93
O       7.69       6.08       8.05
O       3.68       8.78       8.09
