168

Al       1.52       5.34       6.90
Al       5.12      16.15      20.74
Al       4.83       5.40       6.92
Al       1.80      16.09      20.73
H       4.77      13.91      24.27
H       1.87       7.58       3.38
H       1.45      18.33      17.20
H       5.18       3.17      10.44
H       4.79      12.20      26.07
H       1.85       9.29       1.58
H       1.47      20.04      15.40
H       5.17       1.45      12.24
H       2.10      12.68      23.10
H       4.54       8.81       4.54
H       5.42      19.55      18.37
H       1.22       1.94       9.28
H       2.15      10.56      27.21
H       4.49      10.93       0.44
H       5.46      21.67      14.26
H       1.17      -0.18      13.39
H       2.03      11.55       1.32
H       4.61       9.94      26.33
H       5.34      -0.80      12.51
H       1.29      22.29      15.14
H       4.53       9.95      11.72
H       2.10      11.53      15.92
H       1.22       0.79       2.10
H       5.42      20.70      25.55
H       4.48       8.41       9.75
H       2.15      13.08      17.89
H       1.17       2.33       4.07
H       5.47      19.16      23.58
H       1.95       7.34      10.47
H       4.69      14.15      17.18
H       5.26       3.40       3.36
H       1.37      18.09      24.29
H       1.99       8.82      12.49
H       4.64      12.67      15.16
H       5.31       1.93       1.34
H       1.33      19.57      26.31
H       1.91       9.73      22.98
H       1.09       9.04      24.41
H       3.26       8.24      25.33
H       3.04       7.62      23.68
H       4.14       8.99      23.96
H       5.55      12.45       3.24
H       4.73      11.77       4.67
H       2.50      12.50       3.69
H       3.60      13.87       3.97
H       3.37      13.25       2.32
H       5.23      -1.69      18.49
H       4.40      -1.01      17.06
H       6.58      -0.21      16.15
H       6.35       0.42      17.80
H       0.82      -0.95      17.51
H       2.24      22.50      10.59
H       1.41      23.18       9.16
H       5.82      22.45      10.14
H       0.28      21.08       9.85
H       0.06      21.70      11.50
H       3.14       7.07       6.51
H       3.50      14.42      21.14
H       6.46       3.68       7.31
H       0.18      17.81      20.33
C       3.19       3.83       5.03
C       3.45      17.66      22.61
C       6.51       6.91       8.79
C       0.13      14.58      18.85
C       3.18       3.71       8.68
C       3.45      17.78      18.96
C       6.50       7.04       5.14
C       0.14      14.45      22.51
C       5.64      13.26      24.41
C       1.00       8.23       3.24
C       2.32      18.98      17.06
C       4.32       2.52      10.58
C       5.65      12.29      25.40
C       0.99       9.20       2.24
C       2.33      19.94      16.07
C       4.31       1.55      11.58
C       0.11      11.43      25.59
C       6.53      10.06       2.06
C       3.43      20.81      15.88
C       3.21       0.68      11.76
C       1.21      11.58      24.71
C       5.43       9.91       2.93
C       4.53      20.66      16.76
C       2.11       0.83      10.89
C       1.23      12.58      23.75
C       5.41       8.91       3.90
C       4.55      19.65      17.72
C       2.09       1.84       9.93
C       0.12      13.42      23.58
C       6.52       8.07       4.06
C       3.44      18.81      17.89
C       3.20       2.68       9.76
C       1.21      10.04      27.39
C       5.43      11.45       0.26
C       4.52      22.19      14.08
C       2.11      -0.70      13.57
C       1.14      11.78       0.73
C       5.50       9.71      26.92
C       4.45      -1.03      13.09
C       2.18      22.52      14.55
C       6.57      11.10       1.01
C       0.07      10.39      26.64
C       3.25      -0.36      12.81
C       3.39      21.85      14.83
C       5.41       9.37      11.45
C       1.22      12.12      16.19
C       2.10       1.37       2.37
C       4.54      20.12      25.28
C       5.38       8.52      10.36
C       1.25      12.97      17.29
C       2.07       2.22       3.47
C       4.57      19.27      24.18
C       6.53       7.80       9.99
C       0.11      13.69      17.65
C       3.21       2.95       3.83
C       3.42      18.54      23.82
C       1.07       7.91      10.76
C       5.57      13.57      16.89
C       4.38       2.83       3.06
C       2.25      18.66      24.58
C       1.09       8.74      11.88
C       5.54      12.75      15.77
C       4.41       2.00       1.95
C       2.23      19.49      25.70
C       6.58       9.49      12.23
C       0.05      11.99      15.42
C       3.27       1.25       1.59
C       3.37      20.24      26.06
C       6.62      10.36      13.35
C       0.02      11.12      14.30
C       3.30       0.38       0.48
C       3.34      21.11      27.17
C       2.03       9.48      24.05
C       3.19       8.53      24.27
C       4.60      12.01       3.60
C       3.45      12.96       3.38
C       5.35      -1.44      17.42
C       6.51      -0.50      17.20
C       1.29      22.94      10.22
C       0.13      21.99      10.45
O       4.31       4.14       8.27
O       2.33      17.35      19.37
O       1.00       6.60       5.54
O       5.64      14.89      22.10
O       2.05       4.13       5.51
O       4.59      17.36      22.13
O       5.36       6.62       8.31
O       1.27      14.87      19.33
O       2.05       4.06       8.23
O       4.59      17.43      19.42
O       5.37       6.69       5.60
O       1.27      14.80      22.05
O       1.00       6.54       8.33
O       5.64      14.95      19.32
O       4.32       4.21       5.49
O       2.32      17.29      22.15
O       3.16       6.19       6.92
O       3.47      15.30      20.73
O       6.48       4.56       6.90
O       0.16      16.93      20.74
O       2.29      10.71      24.77
O       4.35      10.78       2.87
O       5.61      21.53      16.70
O       1.03      -0.04      10.95
