130

Zn       6.47       5.52      13.99
Zn       6.43       8.31      14.03
Zn       6.43       8.32       1.24
Zn       6.39       5.54       1.24
H       4.97       3.44      15.47
H       4.02       1.23      16.45
H       7.92       3.42      12.55
H       7.89      10.39      12.56
H       8.86      12.60      11.61
H       4.97      10.41      15.49
H       6.41       4.81       5.82
H       6.46       9.05      18.27
H       6.47      10.33      20.45
H       6.44       4.76      18.26
H       6.47       4.76      25.06
H       6.45       3.48      22.88
H       6.49       9.05      25.06
H      11.02       9.03      14.04
H       5.03      10.39      27.85
H       4.09      12.61      26.88
H       7.90      10.41       2.68
H       7.87       3.44       2.67
H       8.84       1.23       3.62
H       5.02       3.43      27.84
H      10.99       4.82       1.24
C       6.44       6.91      16.63
C       3.83       6.91      14.03
C       6.46       6.92      11.39
C       9.07       6.93      14.01
C       6.48       6.91      26.69
C       3.80       6.95       1.24
C       6.44       6.92       3.86
C       9.04       6.93       1.25
C       5.62       2.82      14.84
C       5.56       1.42      14.90
C       4.69       0.70      15.77
C       7.28       2.81      13.19
C       7.31       1.41      13.16
C       8.16       0.65      12.30
C       7.26      11.01      13.20
C       7.32      12.41      13.16
C       8.19      13.13      12.28
C       5.61      11.02      14.86
C       5.58      12.42      14.90
C       4.73      13.18      15.76
C       6.44       0.70      14.03
C       6.45      13.13      14.03
C       6.45       8.04       9.05
C       6.43       5.83       6.19
C       6.45       6.96       9.92
C       6.44       6.92       5.34
C       6.44       6.23       7.54
C       6.44       7.63       7.69
C       6.45       8.12      18.83
C       6.46       8.15      20.23
C       6.47       9.38      20.97
C       6.44       5.69      18.82
C       6.45       5.68      20.22
C       6.44       4.47      20.99
C       6.47       5.69      24.49
C       6.46       5.67      23.09
C       6.45       4.44      22.35
C       6.48       8.12      24.50
C       6.47       8.14      23.10
C       6.47       9.34      22.33
C       6.44       6.91      18.13
C       6.45       6.91      20.95
C       6.48       6.90      25.19
C       6.46       6.91      22.37
C       1.49       5.79      14.04
C      11.40       8.01      14.04
C       2.36       6.87      14.04
C      10.55       6.92      14.02
C      12.75       7.60      14.05
C       0.13       6.20      14.04
C       5.59      11.03       0.41
C       5.55      12.43       0.35
C       4.76      13.14      27.55
C       7.26      11.02       2.05
C       7.30      12.42       2.08
C       8.16      13.18       2.93
C       7.24       2.82       2.04
C       7.29       1.42       2.08
C       8.17       0.70       2.95
C       5.57       2.83       0.39
C       5.54       1.43       0.35
C       4.77       0.65      27.57
C       6.43      13.14       1.21
C       6.41       0.71       1.21
C       1.45       8.06       1.24
C      11.36       5.84       1.25
C       2.32       6.98       1.24
C      10.51       6.93       1.25
C      12.71       6.25       1.24
C       0.09       7.65       1.24
S       6.44       5.44       9.07
S       6.44       8.45       6.18
S       1.51       8.40      14.05
S      11.38       5.39      14.03
S       1.48       5.46       1.24
S      11.35       8.46       1.24
N       6.45       3.47      14.02
N       6.43      10.36      14.03
N       6.42      10.37       1.23
N       6.40       3.48       1.22
Cl       6.46       9.70       9.48
Cl       1.92       4.13      14.04
Cl       1.88       9.72       1.23
O       6.45       5.78      16.05
O       6.42       8.05      16.06
O       4.36       8.07      14.05
O       4.44       5.80      14.00
O       6.45       8.03      12.01
O       6.48       5.76      11.93
O       8.50       5.78      13.99
O       8.50       8.06      14.02
O       6.50       8.04      27.27
O       6.47       5.77      27.27
O       4.33       5.79       1.25
O       4.40       8.06       1.25
O       6.42       5.78       3.29
O       6.46       8.06       3.29
O       8.47       8.08       1.25
O       8.45       5.80       1.26
F       3.91      12.49      16.58
F       8.98       1.34      11.48
F       6.48      10.52      23.03
F       6.43       3.29      20.30
F       3.94       1.35      26.75
F       8.99      12.48       3.75
