186

Zn       8.72      11.71       0.00
Zn       8.54       1.68      11.26
Zn       8.59       8.58      22.55
Zn       8.86      18.58      11.29
Zn       6.23       9.99      21.05
Zn       6.55       9.98       1.57
Zn       6.46      19.99       9.71
Zn       6.48      20.06      12.87
H       2.30      11.13       1.39
H       3.73      17.62       9.84
H       7.33       3.60      21.22
H      10.55       7.43       2.75
H       7.59      13.63       9.90
H      10.36      17.59      14.07
H       7.02       7.56      14.16
H       3.89       5.01       6.13
H       7.23      17.61       2.85
H       3.82      15.00      17.60
H       7.88      12.64       8.51
H       2.14       1.16      12.67
H      11.26      15.62      16.42
H       7.64       2.61      19.84
H      11.35       5.33       5.02
H       7.13      16.60       1.44
H       3.68      13.82      18.83
H       7.03       6.56      12.75
H       3.68       3.81       7.35
H       7.07      11.59       4.34
H       9.36      13.48      19.90
H       6.93       1.55      15.65
H       7.50       8.21      16.57
H       9.34       3.32       8.50
H      11.67       8.49      21.92
H      13.57      17.95       9.96
H      13.39      12.92       2.19
H      13.11       2.90      13.55
H       0.57       7.02      20.63
H       1.04      16.87       9.24
H       5.03       6.10       4.16
H       7.84      18.24       5.25
H       4.90      16.12      15.60
H       1.02      12.58       1.76
H       0.84       2.52      13.24
H       3.61       7.64      21.27
C       7.99       7.57       2.51
C       7.01       5.26       5.37
C       7.63      15.77       5.46
C       6.92      15.36      16.80
C       7.46       6.74      17.81
C       6.94       6.10       4.21
C       7.79      16.77       6.48
C       6.82      16.17      15.62
C       7.39       5.02      19.52
C       9.38       6.17       4.11
C       7.69      15.05       8.20
C       7.45       7.48      20.16
C       9.25      16.33      15.50
C       7.44       4.01      18.54
C       9.47       5.29       5.23
C       7.70      14.04       7.22
C       9.39      15.49      16.64
C      12.74      10.35       0.39
C      12.54       0.34      11.74
C       2.59       9.53       0.02
C       2.51      19.63      11.34
C       0.30       8.49      21.78
C       7.80      17.62      13.85
C       0.46      18.54      10.46
C       1.72       8.58      21.86
C       1.91      18.61      10.52
C       1.81      10.40       0.74
C       1.62       0.43      12.05
C       7.30      12.54      20.04
C       7.38      12.73       2.41
C       7.26       2.47       8.67
C       7.30       2.68      13.73
C       0.39      10.38       0.62
C       7.77      17.52       8.84
C       0.19       0.42      11.95
C      14.66       9.42      22.49
C      14.86      19.50      11.17
C      13.23       9.38      22.44
C      13.44      19.45      11.09
C      13.41      11.37       1.12
C      13.19       1.36      12.47
C      14.80      11.36       1.24
C      14.60       1.39      12.58
C      11.28      10.34       0.24
C       7.58      14.38       5.83
C      11.06       0.30      11.63
C       4.07       9.74       0.05
C       4.00      19.82      11.37
C       7.42       6.38      19.14
C       8.11       6.59       3.63
C       7.75      16.41       7.82
C       7.96      16.68      15.01
C       7.29      13.77       3.46
C       7.16      13.65      19.07
C       7.17       3.73      14.77
C       8.22      15.03      17.33
C       7.15       3.55       7.65
C       7.44      16.12       4.09
C       5.77      14.90      17.51
C       7.22       6.08      15.41
C       5.83       4.83       6.06
C       7.25      15.15       3.10
C       5.86      14.04      18.61
C       7.11       5.11      14.41
C       5.88       3.98       7.17
C       7.38      13.39       4.80
C       7.35       4.35      17.16
C       8.31      14.21      18.51
C       7.21       3.35      16.12
C       8.33       4.06       7.10
C       2.51       7.61      21.16
C       2.64      17.64       9.83
C       7.19       4.67      20.94
C      10.62       6.67       3.54
C       7.47      14.71       9.61
C      10.46      16.87      14.89
C       6.80      15.58       1.77
C       8.28       4.87       5.91
C       4.65      13.73      19.38
C       6.70       5.53      13.06
C       4.65       3.71       7.93
C       7.37       5.74      16.79
O       7.38      10.12      22.63
O       7.98       2.93      12.69
O      10.45       9.28      22.51
O      10.61      19.27      11.84
O       4.35       9.90      21.58
O       4.63       9.83       1.20
O       4.58      19.73      10.24
O       4.55      20.05      12.50
O       8.51       7.60      20.86
O       8.66       7.34       1.44
O       8.81      17.64       9.57
O       7.49       0.03      11.28
O       8.42      17.34      12.78
O       6.87      11.57       2.71
O       6.53      11.54      19.90
O       6.76       1.54      14.02
O       6.48       1.47       8.56
O      10.60      11.40       0.45
O      10.47       1.40      11.32
O       7.62       8.06      17.54
O       5.77       6.42       3.60
O       7.98      18.09       6.21
O       7.25       8.58       2.73
O       5.63      16.45      15.02
O       0.11      12.37       2.04
O      -0.12       2.42      13.35
O       2.01       6.70      20.43
O       2.08      16.69       9.13
O       6.86       5.46      21.81
O      11.76       6.29       3.91
O       7.11      15.50      10.48
O      11.61      16.55      15.27
O       7.09       7.42      15.12
O       6.43       8.24      20.19
O       4.64       5.36       5.62
O       7.34      17.47       3.81
O       4.55      15.40      17.09
O       7.76      12.72       7.55
O      10.60      15.15      17.06
O       7.54       2.69      18.87
O      10.67       4.88       5.64
O       6.06      14.94       1.03
O       4.62      13.41      20.56
O       6.03       4.87      12.28
O       7.06      18.63      14.07
O       4.59       3.40       9.11
O       7.32      12.10       5.17
O       9.52      13.97      19.04
O       7.15       2.06      16.48
O       9.53       3.78       7.64
O      12.66       8.38      21.77
O      12.83      18.52      10.35
O      12.72      12.35       1.75
O      12.47       2.31      13.10
O      14.96       7.54      21.03
O       6.75      18.27       8.83
O      15.10      17.60       9.75
O       8.28      12.63      20.88
O       8.02      12.98       1.35
O       8.22       2.59       9.52
