70

Zn       5.57       5.16       7.28
Zn       5.61       7.99       7.08
H       2.50       8.84      10.94
H      10.10      10.86       8.07
H      10.55      10.02       9.59
H       8.85      10.50       9.31
H       3.27       9.15       9.35
H       3.07       7.47       9.96
H       1.31      10.89       6.55
H       2.75       9.93       7.02
H       1.66      10.62       8.29
H       8.13       7.95       9.97
H       9.29       8.46      11.24
H       8.75       6.75      11.15
C       5.55       6.41       4.65
C       8.17       6.57       7.31
C       5.59       6.69       9.75
C       0.91       5.42       8.24
C       0.88       6.69       5.98
C      10.28       5.28       8.00
C      10.27       6.94       5.98
C       0.83       8.03       8.17
C      10.22       7.78       8.43
C       1.43       6.71       7.48
C       9.72       6.65       7.44
C       5.59       6.59      13.74
C       5.55       6.34       3.22
C       5.55       6.39       1.99
C       5.55       6.46       0.66
C       1.23       5.54       9.68
C       1.56       7.68       5.13
C       9.65       4.88       9.26
C       9.95       8.30       5.52
C       1.55       4.14       7.89
C       1.19       5.40       5.32
C       9.99       4.15       7.10
C       5.59       6.67      12.40
C       9.62       6.09       4.97
C       2.63       8.47       9.92
C       1.71      10.18       7.28
C       8.99       7.65      10.57
C       9.77      10.14       8.83
C       5.60       6.74      11.18
C       5.75      11.20       6.99
C       5.55       1.97       7.18
C       5.76      12.55       7.01
C       5.58       0.62       7.07
C       2.98       6.70       7.35
N       5.72      10.03       7.00
N       9.05       5.49       4.14
N       5.53       3.13       7.29
N       1.61       5.53      10.78
N       2.13       8.36       4.37
N       9.20       4.39      10.22
N       9.68       9.31       5.00
N       1.94       3.05       7.79
N       1.46       4.43       4.73
N       9.72       3.19       6.49
O       5.77       5.33       5.30
O       0.87       9.03       7.17
O      10.12       7.29       9.74
O       9.45       8.89       8.18
O       5.31       7.56       5.15
O       3.50       5.58       7.13
O       3.56       7.82       7.39
O       7.62       5.48       7.66
O       7.61       7.58       6.82
O       5.29       5.56       9.24
O       5.86       7.77       9.11
O       1.28       8.43       9.41
