244

Zn      23.32      18.76      16.99
Zn      13.08       2.00      14.31
Zn      20.11      18.68      16.84
Zn      12.91       3.79      16.95
Zn      20.06       8.26      23.70
Zn      23.30       8.41      23.89
Zn      21.58       7.30      26.34
Zn      21.81       5.58      23.72
Zn      12.95      14.18      10.11
Zn      13.07      12.40       7.41
Zn      11.44      15.15       7.44
Zn      14.59      15.20       7.57
Zn      22.41       7.83       0.52
Zn      23.95      10.67       0.73
Zn       5.92       7.93       0.69
Zn      10.79      12.85      30.61
H      17.13       6.97      21.24
H      26.19      20.02      19.55
H      15.34      15.75      12.97
H      19.32      18.21      11.42
H      23.78      12.08      21.44
H      12.92      10.76      12.96
H       9.84      15.63      12.96
H       5.19       3.51      21.26
H      25.86       9.92      30.94
H      26.25      10.16      26.03
H      13.86      11.37      27.74
H      30.21      18.59      31.23
H       6.71      12.75       3.18
H      10.67      10.35       4.89
H      20.85      12.72       3.19
H      21.92       4.14       2.99
H      14.58       5.98      18.88
H      15.28       7.28      19.79
H      20.24       3.44      21.65
H      28.31      19.87      20.60
H      17.49      16.99      15.60
H      16.12      16.00      15.21
H      17.29      16.77       8.80
H      18.77      17.57       9.20
H      23.16       8.35      29.11
H      23.75       8.86      30.67
H      28.83      11.92      27.85
H      28.13      11.58      26.29
H       8.75      14.64       5.50
H      26.96      14.59       4.58
H       8.53       8.41       2.73
H       9.90       8.40       3.79
H      18.52      14.56      19.70
H      19.11      15.85      18.69
H      13.41       5.33      10.24
H      13.17       4.29      11.62
H      24.70      18.11      10.23
H      23.84      18.71      11.62
H      10.01       6.97      19.99
H      10.88       5.91      18.92
H      18.48       8.50      30.44
H      19.50       8.21      29.06
H      30.33      18.17      25.17
H      30.49      19.86      24.76
H      16.20       9.11       4.73
H      15.17      10.28       5.53
H       7.49       1.91       5.07
H      15.61      18.10       5.79
C      24.41      18.35      14.24
C      19.25      18.13      14.03
C      21.67      16.62      18.25
C      10.31       3.34      18.28
C      15.40       3.51      18.55
C      12.98       4.97      14.23
C      21.68      10.40      22.42
C      24.09       8.86      26.72
C      18.99       8.71      26.45
C      21.70       4.34      26.39
C      19.29       5.83      22.16
C      24.41       6.08      22.43
C      13.04      11.22      10.13
C      10.56      12.77       5.87
C      10.32      15.55      10.14
C      13.05      17.26       6.12
C      15.45      15.76      10.37
C      15.69      12.87       6.11
C      21.33      10.15       2.01
C       6.78      10.32       2.25
C       4.33       5.83       2.01
C      13.38      11.44      30.56
C      27.97      11.29      30.25
C      30.35      15.80      30.56
C      16.35       4.14      19.51
C      18.30       5.18      21.26
C      16.21       5.47      19.99
C      18.43       3.84      20.80
C      17.20       5.95      20.85
C      17.44       3.37      19.93
C      18.23      17.54      13.13
C      16.43      16.41      11.27
C      17.08      16.84      13.61
C      17.56      17.13      10.79
C      16.22      16.29      12.65
C      18.43      17.66      11.75
C      20.55      14.67      19.46
C      22.76      12.36      21.18
C      21.67      15.40      19.04
C      21.67      11.63      21.60
C      22.36      13.47      20.40
C      20.97      13.56      20.25
C      13.04       6.26      12.03
C      12.97       9.88      12.31
C      12.97       6.17      13.43
C      13.04       9.99      10.94
C      12.98       8.53      12.72
C      13.05       7.63      11.64
C      25.61      17.84      12.05
C      28.77      16.08      12.32
C      25.50      17.83      13.45
C      28.90      16.09      10.94
C      27.58      16.71      12.73
C      26.81      17.19      11.65
C       9.12       5.18      19.58
C       5.94       4.27      21.10
C       9.22       3.87      19.06
C       5.83       5.55      21.61
C       7.14       4.12      20.36
C       7.91       5.30      20.33
C      25.08       9.44      27.66
C      27.02      10.66      29.31
C      24.95       9.34      29.08
C      27.17      10.73      27.89
C      25.93       9.97      29.86
C      26.18      10.12      27.12
C      17.82       9.24      28.65
C      14.61      10.93      28.38
C      17.93       9.27      27.24
C      14.49      10.90      29.76
C      15.82      10.32      27.97
C      16.59       9.85      29.05
C      30.46      19.48      26.74
C      30.28      18.33      30.18
C      30.39      20.81      27.20
C      30.35      17.02      29.74
C      30.31      19.23      29.09
C      30.41      18.59      27.85
C       9.58      12.19       4.93
C       7.79      10.91       3.16
C       8.45      12.92       4.44
C       8.94      10.20       3.62
C       7.59      12.24       3.57
C       9.79      10.87       4.50
C      16.89      11.05       4.78
C      20.10      11.95       3.34
C      16.77      12.35       5.31
C      20.22      10.68       2.82
C      18.89      12.10       4.06
C      18.12      10.92       4.07
C       5.48       1.53       4.90
C       3.25       3.87       3.24
C       4.37       0.78       5.31
C       4.34       4.61       2.83
C       3.66       2.75       4.00
C       5.06       2.66       4.15
S      23.19      14.74      19.59
S      20.15      12.27      21.05
S      12.90       7.72      14.24
S      13.11       8.45      10.13
S      26.84      17.05      14.25
S      27.57      16.87      10.13
S       7.87       2.84      19.48
S       7.16       6.58      21.20
S      16.57      10.04      26.45
S      15.83      10.15      30.56
S      30.28      20.95      28.94
S      30.46      16.87      28.01
S      18.13      13.38       4.92
S      18.87       9.65       3.19
S       2.84       1.45       4.78
S       5.87       3.95       3.35
N      15.13       6.28      19.68
N      19.44       2.99      21.20
N      16.77      16.73      14.94
N      17.81      17.36       9.44
N      23.94       8.63      29.70
N      28.24      11.33      27.27
N       8.21      14.24       4.74
N       9.26       8.92       3.21
N      19.25      14.94      19.13
N      13.05       5.20      11.18
N      24.72      18.43      11.19
N      10.01       6.18      19.37
N      18.76       8.75      29.50
N      30.60      19.11      25.44
N      15.94      10.08       4.90
N       6.78       1.19       5.14
O      21.71      19.64      16.26
O      24.49      18.23      15.51
O      20.27      18.70      13.49
O      20.51      17.07      17.88
O      23.42      18.89      13.60
O      22.80      17.15      17.99
O      19.05      18.04      15.30
O      18.91      19.77      17.93
O      14.41       4.23      18.14
O      11.28       4.14      17.99
O      15.62       2.30      18.19
O      13.03       3.84      13.59
O      12.93       5.11      15.50
O      21.69       7.40      24.40
O      20.54       9.89      22.69
O      24.30       9.03      25.46
O      19.97       8.15      27.08
O      22.82       9.97      22.79
O      18.89       8.82      25.17
O      23.09       8.23      27.21
O      21.59       5.46      27.01
O      20.31       5.14      22.52
O      21.80       4.19      25.11
O      19.08       7.04      22.51
O      24.51       7.29      22.81
O      23.45       5.27      22.67
O      13.01      14.22       8.15
O      12.96      12.33      10.77
O      11.53      12.02       6.27
O      10.21      15.69       8.87
O      13.13      11.07       8.86
O      11.28      15.00      10.77
O      10.39      13.98       6.25
O      11.91      16.74       6.42
O      15.64      15.86       9.10
O      14.20      16.79       6.49
O      14.47      15.14      10.91
O      14.70      12.08       6.36
O      15.80      14.09       6.51
O      24.01       8.84       0.01
O      21.23       8.93       1.65
O       5.79      11.04       1.90
O       5.48       6.36       1.77
O      22.28      10.96       1.74
O      22.88       6.25       1.61
O       6.97       9.10       1.86
O      13.45      11.26      31.83
O      28.98      11.92      29.76
O      12.45      12.04      29.93
O      27.75      11.16      31.51
O      30.28      15.95      31.83
O      30.43      14.69      29.92
