300

In       8.92      16.54       3.74
In      12.74       1.67       6.29
In      -2.96      -7.61      16.32
In      -6.79       7.27      13.78
H      -3.88       4.12      11.81
H      13.59      -6.47      18.28
H       9.83       4.81       8.25
H      -7.64      15.41       1.78
H      -3.60       2.03       6.35
H      16.78       2.21       3.68
H       9.56       6.91      13.71
H     -10.83       6.73      16.38
H      -3.30       8.15      10.46
H      -3.79      -4.11      19.63
H       9.26       0.79       9.60
H       9.75      13.04       0.43
H      10.20      12.94       6.26
H       8.96       1.14       3.77
H      -4.24      -4.01      13.80
H      -3.00       7.79      16.29
H       4.11       8.44       6.57
H      -1.78      12.01       3.46
H       1.85       0.50      13.49
H       7.74      -3.07      16.60
H      -2.07       3.32      10.24
H      12.05      -5.24      19.86
H       8.03       5.61       9.82
H      -6.09      14.18       0.21
H      -3.14       4.05       7.72
H      -2.32       3.56       2.31
H       9.09       4.88      12.34
H       8.28       5.38      17.75
H       9.16      11.39      10.60
H      -6.67       8.44      19.49
H      -3.21      -2.45       9.46
H      12.63       0.49       0.57
H       6.16       9.77       6.69
H      -1.54      14.44       3.34
H      -0.20      -0.84      13.38
H       7.49      -5.50      16.72
H      10.74       6.68      10.11
H     -11.57       7.67      19.98
H      -4.78       2.26       9.95
H      17.53       1.27       0.08
H       1.10       3.21       7.49
H      15.65       6.93       2.53
H       4.86       5.73      12.57
H      -9.70       2.01      17.53
H      -1.51       7.37       8.87
H      -0.13       6.54       1.16
H       7.46       1.57      11.19
H       6.09       2.40      18.90
H       0.60       1.21       6.07
H      14.12       5.56       3.96
H       5.36       7.72      13.99
H      -8.16       3.38      16.10
H      10.00      10.84       7.61
H       7.18      -0.01       2.42
H      -4.04      -1.90      12.46
H      -1.22       8.94      17.64
H       4.83       7.01      10.59
H      -8.56       2.58      19.50
H       1.13       1.93       9.47
H      14.51       6.36       0.56
H      -9.63      10.52      12.01
H      -8.32       9.72      18.08
H      15.59      -1.58       8.05
H      14.27      -0.78       1.98
H       8.85       7.54       8.68
H      -4.76      15.80       1.35
H      -2.90       1.40      11.39
H      10.72      -6.87      18.71
H       0.58       5.74      10.68
H      -7.72      -1.78      19.42
H       5.38       3.20       9.39
H      13.67      10.71       0.65
H       2.74       6.91      10.71
H      -7.68       0.68      19.39
H       3.22       2.03       9.35
H      13.63       8.26       0.68
H       6.09      13.87       7.05
H       2.13      16.27       2.99
H      -0.13      -4.93      13.02
H       3.83      -7.33      17.07
H       5.88      11.81       8.47
H       0.40      15.14       1.57
H       0.07      -2.87      11.60
H       5.56      -6.20      18.49
H       6.86       8.35      10.71
H      -8.30       5.00      19.38
H      -0.90       0.59       9.35
H      14.26       3.94       0.68
H       0.77       5.48       6.38
H      -2.86       7.68       3.66
H       5.19       3.45      13.69
H       8.81       1.25      16.41
H       2.92       6.66       6.40
H      -2.80      10.14       3.64
H       3.03       2.27      13.67
H       8.76      -1.20      16.43
C      -1.53       1.51       6.14
C      15.36       3.81       3.89
C       7.48       7.43      13.93
C      -9.40       5.12      16.17
C      -1.78       0.30       5.30
C      14.41       3.02       4.73
C       7.74       8.64      14.76
C      -8.45       5.91      15.33
C      -3.68       6.17      11.22
C      -5.36      -5.36      18.88
C       9.64       2.76       8.85
C      11.32      14.29       1.18
C       0.52       5.52       8.53
C      -2.71       7.49       1.51
C       5.43       3.41      11.54
C       8.66       1.45      18.56
C      -4.78       6.63      12.13
C      -4.46      -6.12      17.97
C      10.74       2.31       7.94
C      10.41      15.06       2.09
C      -3.34       4.82      11.16
C      13.96      -5.68      18.93
C       9.30       4.12       8.90
C      -8.00      14.62       1.13
C      -2.58       2.30       6.60
C      16.55       3.25       3.43
C       8.53       6.63      13.46
C     -10.60       5.69      16.64
C      -0.98       3.76       7.71
C      -3.57       5.33       2.32
C       6.94       5.17      12.36
C       9.53       3.60      17.74
C      -1.70       5.30       9.47
C      -1.88       5.41       0.56
C       7.65       3.63      10.59
C       7.83       3.52      19.50
C      -3.01       7.10      10.40
C      -4.86      -4.33      19.69
C       8.97       1.84       9.66
C      10.81      13.27       0.37
C      -8.60       8.04      12.01
C     -10.99       9.49      18.09
C      14.56       0.90       8.06
C      16.95      -0.55       1.97
C       9.26      12.68       6.75
C       9.15       0.19       3.28
C      -3.31      -3.74      13.31
C      -3.20       8.75      16.78
C       8.89       9.50       9.58
C      -3.04      16.74       0.45
C      -2.94      -0.56      10.49
C       8.99      -7.81      19.61
C       4.70       8.41       7.48
C      -2.08      12.52       2.55
C       1.25       0.53      12.58
C       8.04      -3.59      17.51
C       3.02       6.89       8.55
C      -2.65      10.32       1.48
C       2.94       2.05      11.51
C       8.61      -1.39      18.59
C      -2.35       4.38      10.30
C      13.11      -5.00      19.80
C       8.30       4.56       9.77
C      -7.15      13.94       0.26
C      -9.69       8.56      11.13
C     -10.03       8.76      18.96
C      15.65       0.38       8.93
C      15.98       0.18       1.10
C       4.28       7.63       8.58
C      -2.58      11.78       1.45
C       1.68       1.31      11.48
C       8.53      -2.85      18.61
C      -2.31       3.43       7.37
C      -3.25       4.00       2.66
C       8.27       5.51      12.69
C       9.21       4.93      17.40
C       8.15      13.51       6.57
C      10.41      -0.41       3.46
C      -2.20      -4.58      13.49
C      -4.45       9.34      16.60
C       9.52      10.36      10.49
C      -7.74       8.29      19.60
C      -3.56      -1.43       9.57
C      13.70       0.65       0.46
C       5.85       9.17       7.54
C      -1.93      13.90       2.49
C       0.10      -0.24      12.52
C       7.89      -4.96      17.57
C      10.38       7.71      10.20
C     -10.50       7.82      19.89
C      -4.42       1.23       9.86
C      16.45       1.12       0.17
C       0.07       2.96       7.23
C      15.91       5.90       2.80
C       5.88       5.98      12.83
C      -9.95       3.04      17.26
C       6.65       9.18       8.71
C      -2.29      14.60       1.32
C      -0.69      -0.24      11.35
C       8.24      -5.67      18.74
C       7.92      11.18       8.09
C      -1.10      16.66       1.94
C      -1.96      -2.24      11.97
C       7.06      -7.72      18.12
C      -2.02       6.67       9.53
C      -0.52       5.76       0.50
C       7.98       2.27      10.53
C       6.47       3.18      19.56
C      -0.20       1.85       6.45
C      15.05       5.14       3.58
C       6.16       7.09      13.62
C      -9.10       3.79      16.48
C       9.15      11.51       7.50
C       8.17      -0.44       2.53
C      -3.20      -2.57      12.56
C      -2.22       9.38      17.53
C       5.10       7.62       9.73
C      -2.96      12.51       0.30
C       0.86       1.32      10.33
C       8.92      -3.57      19.76
C     -10.12       9.89      11.27
C      -8.65       9.00      18.83
C      16.07      -0.95       8.80
C      14.61      -0.06       1.23
C       9.33       8.18       9.42
C      -4.42      16.52       0.61
C      -3.37       0.76      10.64
C      10.37      -7.58      19.45
C       1.10       5.94       9.74
C      -2.60       8.19       0.29
C       4.85       2.99      10.32
C       8.56       0.75      19.77
C       2.32       6.59       9.75
C      -2.59       9.57       0.28
C       3.63       2.34      10.31
C       8.55      -0.64      19.78
C       6.94      13.20       7.19
C       1.14      16.71       2.84
C      -0.98      -4.26      12.87
C       4.81      -7.78      17.22
C       6.82      12.05       7.96
C       0.18      16.08       2.07
C      -0.86      -3.11      12.10
C       5.78      -7.14      17.99
C       6.26       8.37       9.80
C      -2.83      13.88       0.23
C      -0.30       0.57      10.26
C       8.79      -4.95      19.83
C       1.21       5.79       7.32
C      -2.78       8.22       2.71
C       4.75       3.14      12.74
C       8.74       0.72      17.35
C       2.42       6.47       7.34
C      -2.74       9.60       2.69
C       3.54       2.47      12.72
C       8.70      -0.66      17.37
C       8.25      14.68       5.64
C      11.40       0.22       4.40
C      -2.29      -5.74      14.43
C      -5.44       8.72      15.67
N      -0.71       4.86       8.54
N      -2.72       6.08       1.49
N       6.67       4.07      11.52
N       8.68       2.85      18.57
N       7.80       9.96       8.80
N      -2.12      15.99       1.23
N      -1.84      -1.03      11.26
N       8.08      -7.05      18.83
O      -0.79      -0.30       4.78
O      13.42       3.63       5.25
O       6.74       9.24      15.29
O      -7.46       5.31      14.81
O      -5.45       5.73      12.75
O      -4.94      -7.12      17.34
O      11.40       3.20       7.31
O      10.90      16.06       2.72
O      -8.41       6.78      12.10
O     -12.20       9.07      17.99
O      14.37       2.16       7.96
O      18.15      -0.14       2.07
O      -5.04       7.87      12.25
O      -3.24      -5.77      17.84
O      10.99       1.07       7.81
O       9.19      14.71       2.22
O      17.70      -0.10       5.13
O      14.61       1.78       4.90
O     -11.75       9.04      14.93
O      -8.65       7.16      15.16
O      -7.90       8.88      12.66
O      -1.02      -7.85      17.43
O      13.85       0.06       7.40
O       6.98      16.79       2.63
O       9.44      15.08       5.32
O      11.20       1.46       4.71
O      -3.48      -6.14      14.74
O      -5.24       7.48      15.35
O       7.21      15.19       5.16
O      12.33      -0.47       4.88
O      -1.25      -6.25      14.90
O      -6.37       9.41      15.19
