84

Al       6.00      12.87       4.55
Al       7.38       7.23      13.78
Al       9.34      12.84       4.62
Al       4.04       7.24      13.72
H       4.34      11.13       4.99
H       9.05       8.96      13.99
H       7.68      14.58       4.18
H       5.71       5.51      13.52
C       4.33      14.70       6.12
C       9.04       5.46      12.13
C       7.66      11.01       3.04
C       5.70       9.01      15.37
C       4.31      14.10       2.52
C       9.07       5.83      15.71
C       7.66      11.62       6.65
C       5.72       8.64      11.79
C       7.55      10.82       7.91
C       5.79       9.48      10.54
C       4.21      14.90       1.26
C       9.13       4.99      16.96
C       6.54       9.97       8.18
C       6.48       9.13       9.43
C       9.88      15.75       0.98
C       9.82       5.34      18.08
C       7.69      10.02       1.99
C       5.67      10.02      16.39
C       4.35      15.68       7.18
C       9.02       4.44      11.12
C       7.80       8.23       0.08
C       5.56      11.84      18.27
C      11.13      17.47       9.09
C       2.24       2.62       9.24
C       5.64      10.87      17.26
C       7.72       9.20       1.10
C       2.31       3.59      10.25
C      11.06      16.51       8.07
C       7.16       7.88       9.36
C       5.48       9.75       7.26
C       3.82       6.59      18.15
C       8.83      15.97       1.91
C       3.34       7.56       0.83
C      10.02      12.51      17.52
C       3.34       2.49       8.35
C      10.03      17.61       9.98
N       7.71       6.86       9.23
N       4.59       9.50       6.54
N       4.38       7.61      18.27
N       7.94      16.22       2.63
N       5.17      10.80      10.64
N       8.54      11.10       8.96
N      11.83      19.34      16.87
N       5.21      14.61       0.22
N       4.26       7.64       1.54
N       9.11      12.41      16.79
N       4.26       2.41       7.64
N       9.12      17.71      10.71
O       9.88      13.80       3.04
O       3.51       6.12      15.22
O       6.54      11.89       6.11
O       6.85       8.35      12.28
O       5.46      14.33       5.67
O       7.92       5.85      12.58
O       8.79      11.37       3.51
O       4.57       8.62      14.92
O       5.47      13.85       2.96
O       7.91       6.15      15.32
O       8.82      11.88       6.22
O       4.57       8.32      12.19
O       6.51      11.42       3.40
O       6.85       8.59      15.01
O       9.87      14.30       5.74
O       3.50       5.88      12.49
O       4.33      12.07       4.73
O       9.05       8.03      13.69
O       7.67      13.64       4.43
O       5.70       6.43      13.81
O       4.92      11.20      11.78
O       4.98      11.44       9.59
O       8.98      10.15       9.62
O       8.82      12.29       9.11
O      11.58      18.94      15.72
O      11.64      18.71      17.92
O       5.63       4.31      17.88
O       5.49      13.42       0.07
