54

Zn       2.71       4.43       5.49
Zn       5.49       4.77       5.57
H       5.79       0.62       3.92
H       2.89       4.46       9.97
H       7.80       4.81       3.64
H       8.01       5.04       6.54
H       3.19       1.32       7.91
H       2.33      -0.15       9.69
H       1.25       8.32       9.52
H       2.45       7.33       7.60
H       4.77       9.10       3.80
H       6.09       5.60       1.37
H       5.93       3.98       9.91
H      -0.23       6.54       3.34
H       1.36       6.29       4.02
H       0.83       2.42       6.38
H       0.13       3.68       7.39
H       8.99       2.92       6.11
H       2.71       3.18       1.33
H       2.12       4.78       0.89
H       2.78       2.29      10.76
C       4.04       4.59       8.12
C       4.02      -0.28       6.71
C       4.59       0.54       5.68
C       5.34      -0.03       4.67
C       4.17       9.53       4.60
C       3.60       8.70       5.55
C       5.22       5.31       0.76
C       4.21       4.70       1.43
C       4.93       4.00      10.37
C       3.90       4.34       9.57
C      -0.08       5.00       4.67
C       4.40       2.03       5.64
C       8.28       4.90       4.62
C       4.30       4.61       2.93
C       3.81       7.22       5.46
C       3.33       0.25       7.83
C       2.84      -0.58       8.82
C       1.64       8.97       8.73
C       2.31       8.42       7.66
C       2.84       9.24       6.63
C       0.14       3.27       6.37
C       2.99       4.10       0.80
N       0.67       4.28       5.45
N       7.53       4.95       5.64
N       0.42       5.92       3.82
O       2.95       4.84       7.50
O       5.19       4.51       7.59
O       3.23       2.48       5.89
O       5.42       2.73       5.34
O       3.24       4.19       3.52
O       5.37       4.98       3.51
O       2.80       6.51       5.11
O       4.96       6.77       5.75
