228

Zn      23.21      18.70      16.99
Zn      13.01       1.93      14.30
Zn      19.97      18.62      16.85
Zn      12.88       3.79      16.92
Zn      19.99       8.24      23.69
Zn      23.19       8.35      23.89
Zn      21.50       7.19      26.35
Zn      21.66       5.53      23.63
Zn      12.86      14.10      10.12
Zn      13.02      12.34       7.45
Zn      11.38      15.09       7.45
Zn      14.60      15.15       7.64
Zn      22.35       7.80       0.58
Zn      23.86      10.64       0.72
Zn       5.94       7.91       0.73
Zn      10.69      12.74      30.57
H      19.25       3.42      21.02
H      16.87       7.02      21.17
H      17.57       2.39      19.47
H      17.67      16.97       9.81
H      15.26      15.62      13.13
H      19.24      18.07      11.43
H      23.72      12.03      21.39
H      12.79      10.65      12.99
H       9.80      15.59      12.99
H       5.24       3.41      21.35
H      27.79      11.25      27.59
H      25.56       9.83      31.00
H      26.08      10.23      26.07
H      13.80      11.32      27.69
H      30.10      18.51      31.16
H       9.03       9.19       3.26
H      26.31      12.82       3.24
H      10.66      10.28       4.83
H      20.74      12.75       3.15
H      21.86       4.11       3.04
C      24.25      18.20      14.31
C      19.16      18.07      14.09
C      21.59      16.64      18.29
C      10.31       3.33      18.26
C      15.35       3.48      18.47
C      12.93       4.84      14.23
C      21.62      10.34      22.38
C      23.89       8.87      26.70
C      18.90       8.55      26.38
C      21.64       4.29      26.29
C      19.17       5.90      22.10
C      24.32       6.00      22.47
C      12.88      11.16      10.16
C      10.58      12.71       5.89
C      10.30      15.56      10.16
C      13.01      17.17       6.22
C      15.41      15.57      10.43
C      15.60      12.88       6.14
C      21.26      10.15       2.02
C       6.77      10.31       2.23
C       4.33       5.80       2.04
C      13.29      11.36      30.52
C      27.80      11.20      30.31
C      30.19      15.70      30.52
C      16.30       4.12      19.42
C      18.17       5.28      21.18
C      16.13       5.43      19.92
C      18.37       3.97      20.70
C      17.04       6.01      20.79
C      17.44       3.41      19.85
C      18.16      17.44      13.17
C      16.38      16.22      11.37
C      17.03      16.74      13.62
C      17.50      16.91      10.89
C      16.14      16.14      12.74
C      18.37      17.51      11.78
C      20.47      14.58      19.44
C      22.70      12.30      21.14
C      21.54      15.35      19.01
C      21.60      11.56      21.56
C      22.27      13.41      20.38
C      20.87      13.48      20.24
C      12.91       6.20      11.98
C      12.85       9.79      12.32
C      12.86       6.04      13.37
C      12.89       9.91      10.94
C      12.87       8.43      12.70
C      12.94       7.56      11.59
C      25.53      17.81      12.08
C      28.68      16.05      12.34
C      25.37      17.77      13.46
C      28.81      16.09      10.96
C      27.47      16.66      12.74
C      26.72      17.16      11.65
C       9.04       5.21      19.56
C       5.96       4.20      21.17
C       9.21       3.93      19.04
C       5.82       5.48      21.67
C       7.15       4.10      20.42
C       7.88       5.31      20.37
C      24.87       9.47      27.66
C      26.79      10.60      29.39
C      24.75       9.37      29.06
C      26.93      10.72      27.99
C      25.69       9.92      29.92
C      25.98      10.16      27.16
C      17.71       9.15      28.64
C      14.54      10.86      28.35
C      17.87       9.16      27.25
C      14.40      10.82      29.72
C      15.74      10.23      27.95
C      16.48       9.73      29.04
C      30.40      19.32      26.67
C      30.16      18.23      30.11
C      30.35      20.66      27.07
C      30.20      16.91      29.68
C      30.20      19.10      29.00
C      30.29      18.43      27.76
C       9.60      12.13       4.93
C       7.76      10.93       3.16
C       8.47      12.83       4.46
C       8.88      10.21       3.60
C       7.56      12.25       3.59
C       9.78      10.81       4.47
C      16.79      11.06       4.69
C      19.99      11.97       3.30
C      16.63      12.33       5.23
C      20.13      10.69       2.80
C      18.78      12.09       4.00
C      18.02      10.90       4.01
C       5.50       1.49       4.88
C       3.26       3.84       3.28
C       4.42       0.74       5.34
C       4.36       4.57       2.86
C       3.69       2.73       4.04
C       5.09       2.64       4.17
S      23.06      14.71      19.56
S      20.07      12.20      21.05
S      12.81       7.57      14.19
S      12.99       8.39      10.10
S      26.70      16.98      14.24
S      27.47      16.86      10.14
S       7.93       2.86      19.51
S       7.12       6.56      21.26
S      16.53       9.92      26.46
S      15.71      10.01      30.55
S      30.21      20.81      28.79
S      30.28      16.72      27.95
S      17.98      13.36       4.87
S      18.80       9.62       3.18
S       2.90       1.42       4.85
S       5.89       3.94       3.39
N      19.06      14.74      19.07
N      12.84       5.15      10.97
N      24.67      18.48      11.11
N       9.84       6.39      19.28
N      18.67       8.70      29.63
N      30.63      18.82      25.33
N      15.81       9.97       4.68
N       6.91       1.16       4.99
O      21.60      19.56      16.27
O      24.52      18.35      15.56
O      19.99      18.87      13.54
O      20.53      17.33      18.24
O      23.11      18.35      13.76
O      22.74      16.95      17.81
O      19.11      17.77      15.32
O      10.02       2.23      17.67
O      14.54       4.24      17.84
O      11.44       3.92      18.27
O      15.45       2.21      18.34
O      13.39       3.77      13.72
O      12.55       5.03      15.44
O      21.59       7.34      24.38
O      20.48       9.80      22.60
O      24.20       8.94      25.46
O      19.66       7.66      26.88
O      22.75       9.93      22.80
O      18.90       8.97      25.17
O      22.83       8.35      27.18
O      21.87       5.36      26.96
O      20.23       5.23      22.33
O      21.32       4.21      25.06
O      18.89       7.05      22.59
O      24.40       7.23      22.82
O      23.38       5.18      22.75
O      12.97      14.18       8.16
O      12.89      12.26      10.81
O      11.64      12.02       6.11
O      10.24      15.77       8.90
O      12.86      11.01       8.89
O      11.22      14.93      10.79
O      10.30      13.84       6.42
O      11.88      16.56       6.24
O      15.72      15.58       9.19
O      14.04      16.89       6.90
O      14.36      15.06      10.94
O      14.83      12.06       6.72
O      15.62      14.16       6.28
O       4.33       8.80       0.02
O      21.17       8.92       1.68
O       5.77      11.03       1.88
O       5.47       6.34       1.81
O      22.22      10.95       1.75
O      22.81       6.21       1.65
O       7.00       9.11       1.86
O      13.38      11.20      31.79
O      28.80      11.78      29.76
O      12.35      11.94      29.88
O      27.59      11.08      31.56
O      30.15      15.87      31.79
O      30.23      14.59      29.90
O      18.25      14.31      19.91
O      18.78      15.21      17.97
O      13.37       5.43       9.88
O      12.23       4.10      11.23
O      24.64      17.97       9.98
O      15.45       1.90      11.45
O       9.83       7.26      20.17
O      10.41       6.48      18.19
O      18.18       8.30      30.71
O      19.88       8.79      29.39
O      30.14      17.70      25.09
O      31.32      19.48      24.55
O      16.29       8.83       4.64
O      14.61      10.25       4.66
O       7.69       2.13       5.04
O      15.89      17.59       4.97
F      15.04       6.16      19.59
F      16.74      16.65      14.94
F      23.71       8.71      29.63
F       8.22      14.11       4.83
