86

Zn      10.09       6.60       8.68
Zn      10.66       9.51       8.82
H       8.70       6.38       4.94
H      10.68      10.85      16.41
H      10.58      11.17       3.77
H      10.08       4.96      13.80
H      11.77       1.44      10.42
H       9.48      14.86       7.55
H      11.69       5.12      10.32
H       8.89      11.33       8.08
H       7.48       4.63       6.45
H      14.23      10.69       9.89
H      10.86      10.08      12.72
H       9.78      10.17       1.94
H      10.03       6.18      15.66
H       7.49       2.42       7.13
H      14.33      13.03       9.49
H       2.79       5.64       8.34
H      17.91      10.93       9.78
H       7.58       5.95       1.37
C      10.56       7.88      11.28
C      11.35      13.75       7.97
C      10.23       3.63       9.52
C      10.79      12.48       8.14
C       8.70       4.08       7.83
C      12.68      11.66       9.22
C       8.28       2.74       7.81
C      13.34      12.90       9.07
C       8.89       1.82       8.66
C      12.67      13.96       8.47
C       8.46       0.47       8.61
C       9.94       8.27       6.27
C      13.28      15.24       8.46
C      12.87       7.57       8.49
C       7.87       8.61       9.15
C       6.44       8.79       9.31
C      14.30       7.56       8.69
C       3.82       8.80       9.34
C      16.88       7.72       9.00
C      15.49       7.77       8.89
C       5.22       8.74       9.34
C       8.55       7.14       2.94
C       9.52       9.34       2.61
C      10.59       9.43      14.74
C       8.92       7.22       4.28
C      10.66       9.23      13.36
C       9.58       8.32       4.82
C      10.50       7.97      12.77
C       9.85       9.42       3.97
C      10.26       6.86      13.63
C       3.57       6.36       8.66
C      17.13      10.14       9.65
C       7.81       5.96       2.47
C      10.20       7.05      15.01
C      10.77      10.78      15.29
C      10.67       1.28      10.36
C      10.58      14.88       7.38
C      11.23       4.14      10.52
C       9.43      12.17       7.59
C       8.90       8.21       2.07
C      10.36       8.31      15.59
C       8.70       8.14       0.67
C      10.33       8.43      17.00
C       9.92       2.27       9.53
N       9.65       4.53       8.67
N      11.42      11.46       8.77
O      10.07       6.85      10.71
O      15.94      10.40       9.77
O       7.45       5.03       3.19
O      10.99      11.79      14.62
O      10.47      10.51       4.47
O      10.13       5.63      13.09
O      10.14       0.31      10.87
O      11.11      15.82       6.80
O      11.52       3.46      11.50
O       8.94      12.82       6.67
O       8.17       5.01       7.03
O       9.93       9.36       6.93
O      13.24      10.63       9.83
O      11.09       8.88      10.68
O      10.21       7.12       6.73
O      12.21       6.52       8.81
O       8.63       9.60       9.43
O      12.41       8.65       8.03
O       8.21       7.47       8.73
O       4.75       6.05       8.74
