296

Er       5.83      13.82      16.07
Er       8.53      12.44      12.76
Er       9.68      17.95      20.37
Er      12.29      21.30      21.74
Er       8.75       9.55       6.48
Er       6.04      10.94       9.80
Er       4.89       5.42       2.19
Er       2.29       2.07       0.82
H       8.41      14.09      17.54
H       7.37      13.23      18.39
H      12.33      13.46      18.79
H       5.34      14.78      18.79
H      10.77      14.32      16.71
H      10.81      13.12      15.69
H      11.18      13.52      13.47
H       3.64      12.48      12.37
H       6.79      17.76      21.39
H       6.78      17.42      19.81
H      12.26      16.65      20.08
H      12.26      16.87      21.63
H       9.31      15.31      19.42
H       8.19      15.58      20.48
H       7.13      22.55      21.38
H       7.09      21.07      20.73
H       7.80       3.09      20.83
H       9.38       3.05      20.72
H       7.01       9.38      17.05
H       6.36       7.36      12.59
H       7.10       5.93      14.44
H       8.51       7.00      19.80
H       3.59       7.38      19.31
H       5.00       7.22      17.29
H       9.60      16.28      12.71
H      10.54      18.94      16.78
H      11.25      19.81      14.59
H       4.67      16.79      13.28
H       3.77      15.29       8.65
H      10.82      17.50       9.39
H       8.49      20.83      17.69
H       4.29       4.62      18.91
H       3.40       3.82      16.77
H      13.43      21.46      17.86
H       6.71      17.41      15.30
H       7.46      19.60      14.46
H       6.16       9.29       5.02
H       7.20      10.14       4.17
H       2.24       9.92       3.77
H       9.23       8.59       3.77
H       3.80       9.06       5.85
H       3.76      10.25       6.87
H       3.39       9.85       9.08
H      10.94      10.89      10.19
H       7.78       5.62       1.17
H       7.80       5.95       2.75
H       2.32       6.73       2.48
H       2.31       6.51       0.93
H       5.26       8.06       3.14
H       6.38       7.79       2.07
H       7.44       0.82       1.18
H       7.48       2.30       1.83
H       6.78      20.28       1.73
H       5.19      20.32       1.84
H       7.56      13.99       5.51
H       8.21      16.02       9.97
H       7.47      17.44       8.12
H       6.06      16.37       2.76
H      10.99      15.99       3.25
H       9.57      16.16       5.27
H       4.97       7.09       9.85
H       4.03       4.44       5.78
H       3.32       3.56       7.97
H       9.91       6.59       9.28
H      10.80       8.08      13.91
H       3.76       5.87      13.17
H       6.09       2.55       4.87
H      10.29      18.75       3.65
H      11.18      19.55       5.79
H       1.14       1.91       4.69
H       7.87       5.97       7.26
H       7.11       3.77       8.10
C       7.66       6.76      17.10
C       7.14       7.56      15.89
C       6.91       8.93      16.06
C       6.58       9.75      14.98
C       6.39       9.17      13.71
C       6.53       7.79      13.57
C       6.94       6.99      14.63
C       6.41      11.21      15.30
C       6.11       9.92      12.45
C       6.86       7.05      18.38
C       7.44       7.06      19.66
C       6.63       7.12      20.80
C       5.23       7.18      20.68
C       4.66       7.27      19.41
C       5.47       7.19      18.28
C       7.23       7.13      22.16
C       4.36       7.12      21.91
C       9.17       7.10      17.25
C       7.54       5.22      16.86
C      10.93      18.52      12.06
C      10.48      18.12      13.48
C       9.81      16.89      13.59
C       9.43      16.39      14.83
C       9.70      17.13      16.00
C      10.33      18.37      15.88
C      10.73      18.86      14.63
C       8.65      15.11      14.85
C       9.42      16.60      17.37
C      11.59      17.29      11.41
C       4.48      16.48      12.25
C       4.94      15.24      11.84
C       4.65      14.80      10.53
C       3.98      15.65       9.65
C      11.38      16.89      10.08
C       5.72      14.43      12.84
C       4.93      13.39      10.16
C       9.66      19.01      11.30
C      11.99      19.67      12.04
C       7.10      22.13      15.78
C       7.69      22.74      17.07
C       8.37      21.88      17.93
C       8.87      22.33      19.15
C       5.06       2.70      19.51
C       4.42       3.58      18.63
C       3.91       3.12      17.42
C       9.44      21.33      20.11
C       5.31       3.19      20.90
C       6.59      20.71      16.11
C       5.82      20.59      17.27
C      13.25      19.35      17.74
C       5.72      18.18      17.03
C       6.44      18.31      15.84
C       6.88      19.56      15.38
C      12.33      19.37      18.92
C       5.45      16.79      17.52
C       8.24      22.16      14.73
C       2.23       1.95      15.23
C       6.92      16.62       5.46
C       7.43      15.82       6.66
C       7.66      14.44       6.50
C       7.99      13.62       7.58
C       8.19      14.20       8.85
C       8.04      15.58       8.99
C       7.63      16.38       7.93
C       8.16      12.16       7.26
C       8.46      13.45      10.11
C       7.71      16.33       4.18
C       7.14      16.31       2.90
C       7.94      16.25       1.76
C       9.34      16.19       1.87
C       9.91      16.10       3.15
C       9.11      16.19       4.28
C       7.34      16.25       0.40
C      10.22      16.26       0.65
C       5.40      16.27       5.31
C       7.03      18.16       5.70
C       3.64       4.85      10.50
C       4.09       5.26       9.08
C       4.76       6.49       8.97
C       5.15       6.98       7.72
C       4.87       6.24       6.56
C       4.24       5.00       6.68
C       3.84       4.52       7.93
C       5.93       8.26       7.71
C       5.16       6.77       5.19
C       2.99       6.08      11.15
C      10.10       6.89      10.31
C       9.63       8.13      10.72
C       9.92       8.57      12.02
C      10.59       7.73      12.90
C       3.19       6.49      12.48
C       8.85       8.94       9.72
C       9.64       9.98      12.40
C       4.91       4.37      11.26
C       2.58       3.70      10.51
C       7.47       1.25       6.77
C       6.89       0.63       5.49
C       6.20       1.49       4.63
C       5.71       1.05       3.41
C       9.51      20.67       3.05
C      10.15      19.80       3.93
C      10.66      20.26       5.14
C       5.13       2.04       2.45
C       9.27      20.19       1.66
C       7.98       2.66       6.45
C       8.76       2.79       5.28
C       1.32       4.02       4.82
C       8.85       5.19       5.53
C       8.13       5.06       6.72
C       7.69       3.82       7.18
C       2.24       4.00       3.64
C       9.12       6.58       5.04
C       6.33       1.21       7.83
C      12.34      21.42       7.33
O       5.57      11.52      16.21
O       7.11      12.12      14.73
O       6.77      11.00      12.21
O       5.33       9.45      11.58
O       3.57       4.11       0.55
O       8.28       7.79      22.41
O       4.00       5.94      22.28
O      11.90       8.19      22.48
O       7.51      15.16      15.43
O       9.14      14.11      14.27
O       9.03      17.43      18.25
O       9.62      15.35      17.62
O       5.16      14.26      13.98
O       6.87      14.03      12.52
O       5.31      13.07       8.99
O       4.81      12.50      11.08
O       9.09      20.11      19.95
O      10.18      21.78      21.04
O       6.31       3.91      21.23
O       4.38       2.94      21.76
O      11.39      18.53      18.96
O      12.52      20.29      19.78
O       5.14      15.92      16.65
O       5.62      16.51      18.77
O       7.71      13.38      17.48
O       5.34      13.80      18.56
O      11.35      13.58      16.36
O      10.89      12.66      13.12
O       7.37      17.72      20.55
O      11.66      16.64      20.87
O       9.16      15.54      20.38
O       6.54      21.83      21.02
O       8.59       2.50      20.71
O       9.00      11.85       6.35
O       7.46      11.25       7.83
O       7.80      12.38      10.35
O       9.25      13.92      10.98
O      11.00      19.26      22.01
O       6.29      15.58       0.15
O      10.57      17.43       0.28
O       2.68      15.18       0.08
O       7.06       8.22       7.13
O       5.43       9.26       8.29
O       5.55       5.94       4.31
O       4.95       8.02       4.93
O       9.41       9.11       8.58
O       7.70       9.34      10.04
O       9.26      10.30      13.57
O       9.77      10.87      11.48
O       5.48       3.26       2.60
O       4.39       1.60       1.52
O       8.26      19.47       1.33
O      10.19      20.43       0.80
O       3.19       4.84       3.60
O       2.05       3.08       2.77
O       9.43       7.45       5.91
O       8.95       6.87       3.79
O       6.86       9.99       5.08
O       9.24       9.57       3.99
O       3.23       9.79       6.20
O       3.68      10.71       9.44
O       7.21       5.65       2.00
O       2.91       6.73       1.69
O       5.41       7.83       2.18
O       8.03       1.55       1.54
O       5.99      20.88       1.85
F       9.82       7.08      16.06
F       9.84       6.22      18.06
F       9.35       8.34      17.78
F       8.40       4.78      15.90
F       6.28       4.88      16.48
F       7.81       4.50      17.99
F       8.79      17.98      11.09
F       8.99      19.95      12.01
F       9.94      19.54      10.08
F      12.51      19.85      10.80
F      11.48      20.86      12.45
F       5.16      19.37      12.87
F       5.18       2.41      14.68
F       9.22      21.27      15.07
F       7.82      21.85      13.48
F       2.58       3.17      14.72
F       9.19       2.17      16.22
F      13.13      22.25      14.24
F       4.75      16.29       6.50
F       4.73      17.15       4.49
F       5.23      15.03       4.78
F       6.18      18.60       6.66
F       8.29      18.49       6.08
F       6.76      18.87       4.57
F       5.79       5.40      11.46
F       5.58       3.43      10.55
F       4.64       3.84      12.48
F       2.06       3.52      11.76
F       3.09       2.51      10.11
F       9.42       4.01       9.69
F       9.39      20.97       7.88
F       5.35       2.10       7.49
F       6.75       1.52       9.08
F      12.00      20.20       7.84
F       5.38      21.20       6.34
F       1.45       1.13       8.31
