66

Zn       5.97       9.73       8.93
Zn       5.97       6.99       8.90
H       1.64       6.40       8.66
H      10.31       6.39       9.13
H       1.46       9.37       9.48
H      10.46       9.37       8.39
H       5.35      10.67      15.51
H       4.96      10.60       2.30
H       5.69      10.50      13.04
H       5.33      10.47       4.77
H       7.43      11.88       7.46
H       4.48      11.84      10.40
C       5.68       8.34       6.32
C       6.00       8.34      11.52
C       8.55       8.37       8.75
C       3.37       8.39       9.09
C       1.13       7.34       8.89
C      10.81       7.34       8.92
C       1.90       8.42       9.17
C      10.03       8.41       8.67
C       5.48       9.70      15.03
C       5.05       9.64       2.80
C       5.66       9.61      13.66
C       5.26       9.57       4.17
C       5.83       8.37      13.01
C       5.41       8.34       4.84
C       5.81       7.22      13.81
C       5.31       7.17       4.08
C       5.63       7.30      15.19
C       5.09       7.23       2.70
C       5.47       8.54      15.84
C       4.98       8.46       2.03
C       5.39       8.59      17.24
C       4.86       8.48       0.62
C       6.75      13.85       8.08
C       5.08      13.83       9.77
C       6.76      12.47       8.10
C       5.12      12.45       9.76
C       5.90      14.60       8.92
C       5.89      16.00       8.92
C       5.83       0.61       8.91
C       6.76       2.74       8.11
C       4.97       2.78       9.70
C       6.76       4.13       8.15
C       5.04       4.17       9.66
C       5.85       2.02       8.91
N       5.95      11.80       8.93
N       5.91       4.82       8.91
O       5.55       9.46       6.91
O       6.28       9.45      10.96
O       6.03       7.25       6.86
O       5.82       7.23      10.94
O       7.95       9.48       8.53
O       3.97       9.49       9.34
O       7.98       7.27       9.03
O       3.94       7.30       8.76
F       7.62       4.80       7.40
F       4.20       4.87      10.41
F       5.98       5.98      13.30
F       5.41       5.94       4.62
F       5.63       6.16      15.91
F       5.01       6.07       2.01
F       7.56      14.51       7.23
F       4.24      14.47      10.61
F       7.64       2.08       7.33
F       4.07       2.16      10.48
