186

Zn      24.09       7.10      10.67
Zn      11.77      14.25       4.41
Zn      20.91       7.05      10.68
Zn      14.98      14.30       4.43
Zn      22.46       9.84      10.74
Zn      13.45      11.52       4.37
Zn      22.51       8.00      13.33
Zn      13.37      13.26       1.79
H      10.82       5.82       8.65
H      16.19       9.29       6.49
H      18.01      13.12       7.10
H      17.88       8.23       8.02
H       6.55       3.80       8.27
H      29.34      17.53       6.86
H      15.46      17.64       6.88
H      20.43       3.68       8.26
H       8.97       4.24       9.16
H      25.09      16.57       5.61
H      16.96      19.97      11.48
H      24.80      14.17       6.24
H      17.08       1.22       3.35
H      10.91       7.02      12.80
H      26.28      12.98       2.37
H      11.80       7.21      10.49
H      25.41      12.39       4.62
H      26.95      13.02       6.84
H       9.09       8.38       8.49
H      21.29      18.96      13.35
H      20.16      19.68      12.17
H      19.43      17.71      14.40
H      21.46      15.46      14.27
H      18.25      18.52      13.37
H      19.27      17.50      11.32
H      18.72      16.26      12.46
H      20.45      16.63      12.32
H      24.00      14.19       0.93
H      32.09      20.43      14.71
H      22.50      15.31       2.55
H      21.78      16.27       1.24
H      20.96      14.16       0.13
H      20.32      14.28       1.78
H      14.26       5.79       0.86
H      21.68      13.19       1.43
H      26.05      13.64       9.72
H      25.27      12.21      10.47
H      23.71      14.49       9.14
H      23.03      13.16      10.09
H      24.28      13.98      12.14
H      23.16      15.20      11.52
H      24.90      15.36      11.20
H      12.27       7.62       7.67
H      11.39       8.58       8.88
H      17.86       5.00      12.63
H      13.70       9.57       7.12
H      12.78      10.59       8.22
H      13.52       9.21      10.19
H      14.94       9.77       9.28
H      14.38       8.10       9.11
H      19.54      13.94      11.51
H      19.34      14.02      13.28
H      19.78      11.46      11.65
H      19.54      11.51      13.40
H      17.23      12.49      13.07
H      17.91      16.39       2.43
H      17.39      10.93      12.24
H      17.47      12.44      11.31
H      14.69       6.67       4.27
H      13.80       5.84       2.98
H      12.76       8.19       4.67
H      11.90       7.50       3.30
H      11.75       5.27       4.47
H      11.09       6.56       5.50
H      12.70       5.90       5.83
H      24.90      19.98      14.07
H      10.87       1.43       0.99
H      19.72      12.07       8.62
C      19.97       6.48      13.43
C      25.65      16.02       0.47
C       9.72      15.15       0.82
C      25.93       5.69      14.24
C      26.60      15.46       1.33
C       9.02       5.33      13.71
C      26.04      11.53       8.08
C      10.03       9.89       7.28
C      27.02      12.00       7.21
C       9.04       9.41       8.14
C       9.93      11.21       6.78
C      15.84      14.87       1.64
C      26.12      10.19       8.54
C      21.74      13.38      13.83
C      13.91       7.87       1.35
C      25.07       9.54       9.38
C      10.93      11.84       5.86
C      21.81      14.50      14.65
C      13.88       6.75       0.51
C      13.47       9.11       0.85
C      22.23      12.15      14.31
C      17.85       5.16      13.71
C      10.48       6.42      12.00
C      17.92      16.23       1.35
C      25.70      20.57      14.51
C      10.07       0.83       0.56
C      16.90      15.47       0.77
C      18.88       5.92      14.29
C      18.93      11.47       8.16
C      16.96       9.88       6.97
C      17.99      12.06       7.31
C      17.90       9.30       7.81
C      17.00      11.26       6.71
C      26.02      13.77       3.09
C      18.89      10.09       8.41
C       5.63       3.30       7.96
C      30.26      18.02       7.18
C      14.52      18.09       7.19
C      21.37       3.24       7.95
C      22.53       5.10       9.17
C      13.36      16.25       5.93
C      13.32      17.47       6.79
C      22.57       3.85       8.34
C      22.34      10.93      13.46
C      10.97       6.52      10.70
C      13.47      10.36       1.67
C      19.92       9.47       9.29
C      15.99      11.88       5.81
C      24.92       6.41      13.40
C      10.77      14.60       1.73
C       9.40       4.85       9.96
C      25.35      15.78       4.90
C       8.91       4.74      11.26
C      25.83      16.12       3.63
C       9.44       5.52      12.29
C      25.52      13.43       4.35
C      26.17      15.11       2.71
C      20.25      19.29      13.20
C      19.28      18.14      13.40
C      19.44      17.07      12.32
C      23.50      15.14       0.67
C      22.23      15.30       1.49
C      21.24      14.17       1.19
C      25.14      13.00       9.71
C      23.90      13.83      10.00
C      24.07      14.64      11.28
C      10.43       5.74       9.67
C      11.94       8.63       7.93
C      13.14       9.57       8.06
C      14.04       9.14       9.22
C      19.79      13.44      12.46
C      19.27      12.01      12.46
C      17.76      11.97      12.26
C      13.92       6.80       3.50
C      12.60       7.26       4.11
C      12.00       6.19       5.03
C      25.18      14.44       5.26
C      18.83      20.69      14.58
O      22.48       7.98      11.36
O      11.99      11.19       5.61
O      21.00       6.94      14.03
O      14.82      14.36       1.05
O      25.33       8.36       9.83
O      10.63      13.00       5.41
O      21.39       5.47       9.61
O      14.51      15.85       5.55
O      22.60      11.10      12.22
O      13.24      10.24       2.91
O      19.81       8.22       9.53
O      13.40      13.37       3.76
O      16.10      13.13       5.57
O      24.26       7.35      13.95
O      11.51      13.65       1.29
O      20.83      10.25       9.74
O      15.09      11.10       5.35
O      24.79       6.04      12.18
O      10.85      15.11       2.90
O      20.09      20.39      14.14
O      24.39      16.24       0.96
O      25.02      12.40       8.40
O      23.64       5.69       9.36
O      11.03       9.04       6.88
O      21.23      13.53      12.55
O      14.47       7.79       2.60
O      12.23      15.71       5.65
O      22.20       9.81      14.05
O      13.65      11.46       1.04
O      19.78       6.44      12.17
O      16.04      14.92       2.90
O      23.98      10.18       9.57
