128

Al       4.08       0.00      25.03
Al       4.08      14.45      16.68
H       2.17      12.64      10.35
H       1.92      16.96      10.57
H       1.92      11.94       6.11
H       2.17      16.25       6.34
H       2.03      15.99       8.43
H       2.03      12.91       8.26
H       2.17       9.87      21.42
H       1.92       7.90      17.56
H       1.92       6.55      24.15
H       2.17       4.58      20.30
H       2.03       6.53      19.48
H       2.03       7.92      22.23
H       2.17      -8.06      18.29
H       1.92     -10.41      21.91
H       1.92      -4.03      19.80
H       2.17      -6.39      23.42
H       2.03      -8.07      22.15
H       2.03      -6.38      19.56
H       0.30      16.56      14.15
H       3.78      12.68      13.93
H       3.78      16.22       2.75
H       0.30      12.34       2.53
H       0.30      11.20      16.13
H       3.78      12.95      19.60
H       3.78       1.50      22.12
H       0.30      17.70       0.56
H       0.30      15.59      19.78
H       3.78      17.72      16.53
H       3.78      11.18       0.16
H       0.30      -1.14      21.94
C       2.04      -1.75      23.87
C       2.04      14.33       2.09
C       2.04       1.88      24.09
C       2.04      14.57      14.59
C       2.04      12.57      17.62
C       2.04      16.20      17.84
C       2.04      14.66      13.09
C       2.14      13.50      12.29
C       2.11      13.58      10.90
C       2.04      14.82      10.24
C       1.97      15.97      11.03
C       1.94      15.91      12.43
C       2.04      14.96       8.79
C       2.04      13.94       7.90
C       1.97      12.93       5.65
C       2.04      14.08       6.45
C       2.11      15.32       5.78
C       2.14      15.40       4.40
C       2.04      14.24       3.60
C       1.94      12.99       4.26
C       2.04      11.23      18.30
C       2.14      11.12      19.71
C       2.11       9.87      20.33
C       2.04       8.68      19.59
C       1.97       8.79      18.19
C       1.94      10.04      17.55
C       2.04       7.36      20.19
C       2.04       7.09      21.52
C       1.97       5.65      23.52
C       2.04       5.77      22.12
C       2.11       4.58      21.38
C       2.14       3.33      22.00
C       2.04       3.22      23.41
C       1.94       4.41      24.16
C       2.04      17.46      18.67
C       2.14     -10.17      18.06
C       2.11      -9.01      18.83
C       2.04      -9.05      20.23
C       1.97     -10.32      20.83
C       1.94     -11.49      20.07
C       2.04      -7.86      21.07
C       2.04      -6.58      20.64
C       1.97      -4.13      20.88
C       2.04      -5.40      21.48
C       2.11      -5.44      22.88
C       2.14      -4.28      23.65
C       2.04      -3.01      23.04
C       1.94      -2.96      21.64
C       1.84      17.22      13.15
C       2.26      12.11      12.86
C       2.26      16.79       3.83
C       1.84      11.68       3.53
C       1.84      10.01      16.05
C       2.26      12.30      20.62
C       2.25       2.15      21.09
C       1.84      18.89       0.63
C       1.84      16.12      20.85
C       2.26      18.93      16.57
C       2.26       9.97       0.11
C       1.84      -1.67      20.87
O       3.01       1.60      24.88
O       3.01      -0.93      23.72
O       3.01      13.78       1.46
O       1.07       1.08      23.83
O       1.07      14.94       1.53
O       1.07      -1.57      24.69
O       3.01      15.38      17.99
O       3.01      15.12      15.22
O       3.01      12.85      16.84
O       1.07      16.02      17.02
O       1.07      13.37      17.88
O       1.07      13.95      15.15
O       0.98      17.26      14.20
O       2.52      18.17      12.84
O       3.12      11.96      13.89
O       1.59      11.19      12.43
O       3.12      16.94       2.79
O       1.59      17.71       4.26
O       0.98      11.63       2.49
O       2.52      10.73       3.85
O       0.98      10.89      15.49
O       2.52       9.26      15.39
O       3.12      13.28      20.24
O       1.59      12.39      21.63
O       3.12       1.17      21.47
O       1.59       2.06      20.08
O       0.98      18.01       1.19
O       2.52      19.64       1.30
O       0.98      15.20      20.37
O       2.52      15.92      21.83
O       3.12      18.12      15.92
O       1.59      -9.13      15.99
O       3.12      10.78       0.76
O       1.59       9.13       0.69
O       0.98      -0.75      21.35
O       2.52      -1.47      19.88
