36

V       8.61       7.58      10.36
V       1.88       5.25       0.13
H       5.38       9.47       0.61
H       4.62       6.09       6.57
H       4.66       5.54       4.12
H       2.00       1.29       0.69
H       8.02       3.37       9.90
H       8.78       6.77       3.92
H       8.73       7.34       6.36
H      11.39      11.54       9.85
C       4.48      10.02       0.35
C       5.52       6.24       5.98
C       5.55       5.93       4.62
C       1.12       0.72       0.39
C       8.92       2.82      10.17
C       7.88       6.62       4.51
C       7.85       6.94       5.86
C      12.27      12.11      10.13
C       6.66      11.43      10.46
C       6.71       9.95      10.42
C       6.67       6.74       6.60
C       6.67       7.06       8.05
C       6.73       6.12       3.88
C       6.78       5.78       2.44
C       6.74       1.41       0.06
C       6.74       2.89       0.08
O       7.86       9.40      10.45
O       5.55       7.02       8.68
O       5.67       5.60       1.83
O       7.87       3.47       0.24
O       8.95       5.62      10.39
O       7.93       5.70       1.90
O       7.80       7.33       8.59
O       5.59       9.31      10.36
O      10.14       7.97       9.90
O       3.41       4.88       0.60
