268

Pr       0.00       9.28      13.69
Pr       8.04       4.64      10.81
Pr       8.04       4.64       2.65
Pr       0.00       9.28       5.52
H       1.99      10.39       0.31
H      -0.04       7.01       0.31
H      -1.95      10.45       0.31
H      10.03       3.53       7.86
H       6.09       3.47       7.86
H       8.00       6.92       7.86
H       6.05       3.53      16.02
H       8.07       6.92      16.02
H       9.99       3.47      16.02
H      -1.99      10.39       8.48
H       1.95      10.45       8.48
H       0.04       7.01       8.48
H       4.14      11.30       1.15
H      -0.32       4.68       1.15
H      -3.82      11.86       1.15
H      12.18       2.62       7.02
H       4.22       2.06       7.02
H       7.72       9.24       7.02
H       3.90       2.62      15.18
H       8.36       9.24      15.18
H      11.86       2.06      15.18
H      -4.14      11.30       9.32
H       3.82      11.86       9.32
H       0.32       4.68       9.32
H       6.32      10.27       0.47
H      13.78       3.32       0.47
H       4.03       0.34       0.47
H      -1.72       3.65       7.70
H      -4.01      13.59       7.70
H       5.74      10.61       7.70
H       1.72       3.65      15.86
H      -5.74      10.61      15.86
H       4.01      13.59      15.86
H       9.76      10.27       8.64
H      12.05       0.34       8.64
H       2.30       3.32       8.64
H       6.30       8.28      15.31
H      12.06       4.33      15.31
H       5.76       1.32      15.31
H      -1.74       5.65       9.20
H      -2.28      12.61       9.20
H       4.02       9.60       9.20
H       1.74       5.65       1.03
H      -4.02       9.60       1.03
H       2.28      12.61       1.03
H       9.78       8.28       7.14
H      10.32       1.32       7.14
H       4.02       4.33       7.14
H       5.21       6.63      14.08
H      11.17       6.09      14.08
H       7.73       1.20      14.08
H      -2.82       7.30      10.42
H      -0.31      12.72      10.42
H       3.13       7.83      10.42
H       2.82       7.30       2.26
H      -3.13       7.83       2.26
H       0.31      12.72       2.26
H      10.86       6.63       5.91
H       8.35       1.20       5.91
H       4.91       6.09       5.91
H       2.51       4.54      13.41
H      -5.36       9.48      13.41
H       2.85      13.83      13.41
H      10.55       9.38      11.09
H      10.89       0.10      11.09
H       2.68       4.45      11.09
H       5.53       9.38       2.92
H      13.40       4.45       2.92
H       5.19       0.10       2.92
H      -2.51       4.54       5.25
H      -2.85      13.83       5.25
H       5.36       9.48       5.25
H       4.24       4.79      13.10
H      10.07       7.86      13.10
H       9.81       1.28      13.10
H      -3.80       9.14      11.40
H       1.77      12.65      11.40
H       2.03       6.07      11.40
H       3.80       9.14       3.23
H      -2.03       6.07       3.23
H      -1.77      12.65       3.23
H      11.84       4.79       4.94
H       6.27       1.28       4.94
H       6.01       7.86       4.94
H       2.28       6.89      13.98
H      -3.21       8.51      13.98
H       0.93      12.45      13.98
H      10.32       7.03      10.52
H       8.97       1.47      10.52
H       4.83       5.42      10.52
H       5.76       7.03       2.35
H      11.25       5.42       2.35
H       7.11       1.47       2.35
H      -2.28       6.89       5.82
H      -0.93      12.45       5.82
H       3.21       8.51       5.82
C       2.90       8.82      15.49
C      -1.85       7.01      15.49
C      -1.05      12.02      15.49
C      10.94       5.11       9.01
C       6.99       1.90       9.01
C       6.19       6.92       9.01
C       5.14       5.11       0.85
C       9.89       6.92       0.85
C       9.09       1.90       0.85
C      -2.90       8.82       7.32
C       1.05      12.02       7.32
C       1.85       7.01       7.32
C       2.94       9.93       0.03
C      -0.91       6.41       0.03
C      -2.03      11.50       0.03
C      10.98       3.99       8.14
C       6.01       2.42       8.14
C       7.13       7.51       8.14
C       5.10       3.99      16.30
C       8.95       7.51      16.30
C      10.07       2.42      16.30
C      -2.94       9.93       8.20
C       2.03      11.50       8.20
C       0.91       6.41       8.20
C       4.15      10.44       0.48
C      -1.07       5.11       0.48
C      -3.08      12.30       0.48
C      12.19       3.48       7.69
C       4.96       1.63       7.69
C       6.97       8.81       7.69
C       3.89       3.48      15.85
C       9.11       8.81      15.85
C      11.12       1.63      15.85
C      -4.15      10.44       8.65
C       3.08      12.30       8.65
C       1.07       5.11       8.65
C       5.38       9.86       0.11
C      -2.19       4.34       0.11
C      -3.19      13.65       0.11
C      13.42       4.07       8.06
C       4.85       0.27       8.06
C       5.85       9.59       8.06
C       2.66       4.07      16.23
C      10.23       9.59      16.23
C      11.23       0.27      16.23
C      -5.38       9.86       8.27
C       3.19      13.65       8.27
C       2.19       4.34       8.27
C       5.37       8.75      15.62
C      12.93       4.90      15.62
C       5.81       0.27      15.62
C      -2.67       5.17       8.88
C      -2.23      13.65       8.88
C       4.89       9.03       8.88
C       2.67       5.17       0.72
C      -4.89       9.03       0.72
C       2.23      13.65       0.72
C      10.71       8.75       7.45
C      10.27       0.27       7.45
C       3.14       4.90       7.45
C       4.15       8.21      15.12
C      -3.00       6.22      15.12
C      -1.15      13.42      15.12
C      12.19       5.71       9.38
C       6.89       0.51       9.38
C       5.04       7.70       9.38
C       3.89       5.71       1.21
C      11.04       7.70       1.21
C       9.19       0.51       1.21
C      -4.15       8.21       6.96
C       1.15      13.42       6.96
C       3.00       6.22       6.96
C       4.23       7.06      14.30
C      12.04       6.73      14.30
C       7.85       0.14      14.30
C      -3.81       6.86      10.20
C      -0.19      13.79      10.20
C       4.00       7.20      10.20
C       3.81       6.86       2.04
C      -4.00       7.20       2.04
C       0.19      13.79       2.04
C      11.85       7.06       6.13
C       8.23       0.14       6.13
C       4.04       6.73       6.13
C       3.25       5.24      12.99
C      10.95       8.49      12.99
C       9.92       0.20      12.99
C      -4.79       8.69      11.51
C       1.88      13.73      11.51
C       2.91       5.43      11.51
C       4.79       8.69       3.34
C      -2.91       5.43       3.34
C      -1.88      13.73       3.34
C      12.83       5.24       4.82
C       6.16       0.20       4.82
C       5.13       8.49       4.82
N       3.19       6.46      13.77
N      -4.04       7.93      13.77
N       0.84      13.46      13.77
N      11.23       7.46      10.73
N       8.88       0.47      10.73
N       4.00       6.00      10.73
N       4.84       7.46       2.57
N      12.08       6.00       2.57
N       7.20       0.47       2.57
N      -3.19       6.46       5.60
N      -0.84      13.46       5.60
N       4.04       7.93       5.60
N      -0.53       6.74      12.11
N      -1.93      11.01      12.11
N       2.46      10.09      12.11
N       7.51       7.18      12.39
N      10.50       3.83      12.39
N       6.11       2.91      12.39
N       8.57       7.18       4.23
N       9.97       2.91       4.23
N       5.58       3.83       4.23
N       0.53       6.74       3.94
N      -2.46      10.09       3.94
N       1.93      11.01       3.94
O       1.76       8.36      15.02
O      -1.69       8.22      15.02
O      -0.08      11.28      15.02
O       9.80       5.57       9.48
O       7.96       2.65       9.48
O       6.35       5.71       9.48
O       6.28       5.57       1.31
O       9.73       5.71       1.31
O       8.12       2.65       1.31
O      -1.76       8.36       6.85
O       0.08      11.28       6.85
O       1.69       8.22       6.85
O      -1.14       7.85      11.85
O      -0.67      10.99      11.85
O       1.81       9.01      11.85
O       6.90       6.07      12.65
O       9.85       4.91      12.65
O       7.37       2.94      12.65
O       9.18       6.07       4.48
O       8.71       2.94       4.48
O       6.23       4.91       4.48
O       1.14       7.85       3.68
O      -1.81       9.01       3.68
O       0.67      10.99       3.68
O       0.26       6.75      13.12
O      -2.32      10.33      13.12
O       2.07      10.77      13.12
O       8.30       7.18      11.38
O      10.11       3.15      11.38
O       5.72       3.60      11.38
O       7.78       7.18       3.21
O      10.36       3.60       3.21
O       5.97       3.15       3.21
O      -0.26       6.75       4.96
O      -2.07      10.77       4.96
O       2.32      10.33       4.96
O      -0.69       5.74      11.41
O      -2.73      11.65      11.41
O       3.42      10.46      11.41
O       7.35       8.19      13.09
O      11.46       3.47      13.09
O       5.31       2.27      13.09
O       8.73       8.19       4.92
O      10.77       2.27       4.92
O       4.62       3.47       4.92
O       0.69       5.74       3.24
O      -3.42      10.46       3.24
O       2.73      11.65       3.24
