104

Zn       1.36       1.85       8.23
Zn       4.27       6.14       8.50
Zn       1.53       3.98       5.39
Zn       4.17       3.11      10.17
H       4.60       4.43      13.23
H      -1.64       2.75       9.11
H       2.29       3.90      12.63
H      -0.36       6.94       6.75
H       7.71      13.25       1.16
H       7.23       5.89       7.17
H       6.12       5.71       4.76
H       3.14      -0.54       6.90
H       6.68       1.82       8.55
H      -0.59       1.17      10.91
H       4.14      10.27       6.02
H      13.23       3.08       3.55
H      -3.50       2.33      15.20
H       7.22       9.60       2.78
H       6.00      -1.49      11.97
C       0.09       0.33       5.89
C       7.51       3.70       7.64
C       4.26       6.64       3.86
C       4.67      -0.74       8.55
C       0.23       1.85      11.11
C       2.58       8.15       7.49
C      -1.34       3.88       6.05
C       4.26       5.13      12.47
C       3.40       6.80      11.34
C      -1.38       3.13       8.13
C       1.72       3.25      11.98
C       6.87       4.96       7.58
C       0.67       7.18       7.00
C       0.54       2.55      12.30
C       1.23       8.46       7.23
C      -2.24       3.45       7.05
C       3.61       6.38      12.66
C       5.29      -1.96       8.28
C       5.74      -3.05       7.95
C       0.17      10.83       7.61
C       0.63       9.72       7.35
C       8.84       3.43       7.29
C       2.97       6.10       3.98
C      10.04       3.33       7.09
C      11.39       3.30       7.00
C      -3.64       3.36       6.99
C       4.60       7.72       3.05
C       4.90       9.37       1.06
C       4.00       9.41       0.01
C      -0.35       2.30      14.75
C       4.74       8.62       2.22
C      -0.03       2.45      13.57
C       3.29       6.97      13.89
C       4.86       0.21       9.59
C      13.93       0.11       0.37
C       7.96      14.29       1.38
C      14.62      -0.45       2.60
C       3.14       7.33      15.04
C      -0.96      -0.13       3.57
C       5.04       5.71       4.61
C       3.62      -0.16       7.79
C       6.57       2.87       8.29
C       0.92       1.41       4.21
C      -0.06       0.44       4.49
S       3.98       9.12       7.83
S      -1.53       4.38       4.39
S       2.41       8.58       0.31
S       6.52      10.14       0.83
S       5.98       0.37      10.93
N       1.02       1.14       6.37
N       2.76       6.81       7.44
N      -0.08       3.82       6.52
N       4.40       4.86      11.17
N       3.86       5.92      10.45
N      -0.09       3.35       7.78
N       2.10       2.98      10.72
N       1.59       6.21       7.14
N       5.67       4.86       8.17
N       2.99       4.98       4.70
N       4.00       1.22       9.45
N       4.29       4.73       5.11
N       3.24       1.01       8.35
N       5.48       3.58       8.62
N       1.56       1.86       5.30
N       1.18       2.11      10.19
O       3.66      10.32       8.53
O       4.98       8.18       8.36
O       4.60       9.49       6.39
O      -2.52       5.41       4.26
O      -0.17       4.56       3.91
O      -2.04       3.05       3.65
O       2.59       7.17       0.21
O       1.78       9.20       1.44
O      -3.04       1.48      15.01
O       7.41       9.16       0.27
O       6.37      11.44       0.24
O       6.94      10.44       2.35
O       7.30      -0.02      10.52
O       5.72       1.68      11.49
O       5.45      -0.68      12.02
F      -0.59      -0.48       6.72
F       2.85       7.94      10.92
F      14.11       1.44       0.62
F       1.84       6.60       3.48
F       1.22       1.92       3.02
