228

Zn       7.58       8.97      15.51
Zn      27.12      10.73      18.21
Zn       9.06      11.84      15.66
Zn      25.52      11.67      15.58
Zn      18.40       7.23       8.83
Zn      16.86       4.42       8.64
Zn      18.64       5.42       6.16
Zn      20.07       4.50       8.87
Zn      16.26      16.22      22.39
Zn      17.79      15.30      25.04
Zn      16.06      18.00      25.05
Zn      14.58      15.14      24.90
Zn      17.76       4.94      31.95
Zn      14.55       4.81      31.76
Zn      24.95      19.73      31.80
Zn      18.41      17.55       1.94
H      20.82       9.38      11.38
H       5.14       6.85      12.99
H      13.87      14.66      19.45
H       9.84      12.29      21.10
H      13.34       5.58      11.12
H      19.37      14.74      19.50
H      16.31      19.63      19.50
H      29.22      18.33      11.11
H      14.39       2.89       1.57
H      13.89       2.64       6.49
H      18.29      14.14       4.82
H       4.66       2.69       1.33
H      20.24      21.15      29.28
H      20.70      16.48      27.67
H      14.03       8.56      29.36
H      21.31       3.79      29.45
C       7.56       7.80      18.18
C       9.92      12.31      18.43
C      10.14       9.52      14.22
C      27.07      13.77      14.25
C      24.71       9.31      14.04
C      24.55      12.09      18.27
C      15.81       6.70      10.17
C      16.08       4.01       5.82
C      18.56       8.35       6.15
C      21.20       4.02       6.22
C      20.85       6.88      10.41
C      18.45       2.33      10.01
C      18.89      14.90      22.33
C      18.54      17.66      26.62
C      16.12      19.17      22.33
C      13.47      17.48      26.29
C      13.83      14.58      22.12
C      16.18      13.25      26.41
C      16.13       6.95      30.50
C      22.44      20.00      30.28
C      27.55      20.28      30.49
C      18.52      14.61       2.00
C      12.21       1.50       2.24
C       7.13       1.34       1.95
C      23.71       8.72      13.09
C      21.86       7.49      11.32
C      22.59       9.41      12.61
C      23.00       6.81      11.79
C      21.68       8.81      11.74
C      23.90       7.41      12.65
C      10.93      12.92      19.35
C      12.81      13.99      21.20
C      12.08      13.60      18.92
C      11.65      13.31      21.63
C      12.99      14.13      19.81
C      10.73      12.79      20.73
C      12.51       9.61      13.10
C      13.56       6.62      11.38
C      11.32       9.00      13.50
C      14.72       7.26      10.99
C      12.75       7.49      12.14
C      13.31       8.77      12.30
C      23.34      12.73      20.51
C      20.12      14.33      20.17
C      23.50      12.69      19.13
C      20.00      14.35      21.54
C      21.34      13.72      19.79
C      22.11      13.29      20.90
C       7.34       6.47      20.42
C       7.55       2.87      20.15
C       7.45       6.60      19.03
C       7.45       2.77      21.53
C       7.52       4.22      19.75
C       7.40       5.12      20.84
C      25.94      15.75      12.96
C      28.19      18.04      11.31
C      27.01      15.02      13.47
C      27.10      18.74      10.82
C      27.75      16.93      12.07
C      26.35      16.82      12.14
C      15.10       3.39       4.88
C      13.18       2.14       3.18
C      15.21       3.44       3.47
C      13.07       2.09       4.59
C      14.28       2.83       2.65
C      14.01       2.70       5.41
C      18.56       9.68       3.89
C      18.39      13.28       4.17
C      18.47       9.54       5.28
C      18.51      13.38       2.80
C      18.44      11.92       4.57
C      18.57      11.03       3.48
C       3.82       2.76       5.82
C       4.89       2.50       2.38
C       2.64       3.40       5.43
C       6.05       1.87       2.80
C       4.09       2.85       3.49
C       4.66       2.46       4.72
C      19.51      18.28      27.58
C      21.44      19.36      29.36
C      19.41      19.60      28.06
C      21.54      18.04      28.89
C      20.35      20.13      28.93
C      20.59      17.51      28.02
C      17.29      11.38      27.86
C      15.06       8.89      29.22
C      16.22      12.08      27.31
C      16.14       8.20      29.73
C      15.48      10.04      28.53
C      16.89      10.20      28.53
C      30.89      17.32      27.65
C      29.77      20.38      29.22
C      32.04      17.96      27.17
C      28.64      19.72      29.67
C      30.58      19.50      28.47
C      30.04      18.20      28.36
S      11.23       7.36      12.93
S      14.83       8.92      11.52
S      22.14      13.39      18.30
S      21.34      13.62      22.39
S       7.58       5.06      18.25
S       7.34       4.31      22.35
S      28.53      15.69      12.98
S      25.56      18.06      11.27
S      18.35      11.08       6.07
S      18.67      11.85       1.98
S       2.56       3.61       3.71
S       6.18       1.70       4.53
S      14.71      11.32      27.67
S      17.68       8.93      29.36
S      32.09      19.62      27.65
S      28.53      18.06      29.16
N      12.99      10.94      13.48
N      24.33      12.35      21.52
N       7.09       7.53      21.38
N      24.53      15.56      13.27
N      18.55       8.61       2.90
N       4.16       2.31       7.16
N      18.70      11.77      27.87
N      30.57      15.90      27.56
O       7.51      10.79      16.24
O       7.32       7.62      16.94
O       8.84      11.89      18.97
O      10.00      10.78      14.29
O       7.92       8.88      18.74
O       9.35       8.63      14.68
O      10.21      12.25      17.19
O      28.18      13.55      14.85
O      24.38      10.38      14.64
O      26.05      13.01      14.23
O      25.81       8.67      14.18
O      25.31      11.22      18.78
O      24.54      12.50      17.05
O      18.48       5.40       8.13
O      16.81       7.47       9.98
O      15.87       3.80       7.06
O      19.03       7.28       5.64
O      15.65       5.51       9.73
O      18.19       8.53       7.36
O      17.03       4.70       5.33
O      20.13       4.28       5.55
O      20.89       5.62      10.24
O      21.41       4.26       7.44
O      20.00       7.69       9.88
O      17.31       2.82       9.69
O      19.60       2.79       9.71
O      16.17      16.17      24.34
O      17.88      15.35      21.69
O      18.69      16.42      26.38
O      15.98      19.32      23.59
O      19.04      14.88      23.60
O      16.26      18.07      21.70
O      17.65      18.42      26.11
O      14.52      18.22      26.26
O      13.76      14.27      23.35
O      13.27      16.42      25.61
O      14.69      15.35      21.58
O      17.26      13.56      25.80
O      15.04      13.81      26.28
O      24.83      21.57      32.48
O      17.27       6.50      30.86
O      22.22      21.22      30.59
O      26.57      19.49      30.72
O      14.98       6.43      30.74
O      19.01       3.85      30.90
O      23.41      19.29      30.68
O      18.68      14.46       0.74
O      11.27       0.81       2.75
O      18.36      15.71       2.63
O      12.42       1.70       1.00
O       6.98       1.43       0.69
O       8.12       0.83       2.58
O      13.76      11.47      12.66
O      12.67      11.41      14.57
O      23.85      12.02      22.62
O      25.53      12.44      21.25
O       7.53       7.32      22.53
O      26.08       8.52      21.03
O      23.73      15.97      12.40
O      24.21      15.07      14.36
O      19.15       8.87       1.84
O      17.93       7.57       3.13
O       5.38       2.21       7.39
O       3.26       1.99       7.94
O      19.51      10.83      27.95
O      18.99      12.97      27.87
O      29.35      15.63      27.55
O      11.84      15.08      27.56
F      22.35      10.70      12.96
F      23.26       5.54      11.40
F      12.33      13.79      17.60
F      11.38      13.16      22.95
F      16.25       4.07       2.87
F      12.04       1.46       5.19
F      18.38      20.40      27.71
F      22.56      17.24      29.26
