68

Zn       4.87       6.98       6.98
Si       8.72       6.98       6.98
H       2.80       6.98       4.69
H       2.67       6.98       2.33
H       7.02       6.98       2.27
H       6.95       6.98       4.65
H       2.72       6.98      11.69
H       7.07       6.98      11.63
H       6.94       6.98       9.26
H       2.79       6.98       9.30
H       2.80       4.69       6.98
H       2.67       2.33       6.97
H       7.02       2.27       6.98
H       6.95       4.65       6.98
H       2.72      11.69       6.98
H       7.07      11.63       6.98
H       6.94       9.26       6.98
H       2.79       9.30       6.98
H       7.52       7.87      13.21
H       7.08       6.97       0.64
H       7.52       6.09      13.20
H       2.22       7.87       0.75
H       2.66       6.98      13.32
H       2.22       6.09       0.75
H       7.52      13.21       6.08
H       7.08       0.64       6.97
H       7.52      13.21       7.87
H       2.22       0.75       6.09
H       2.66      13.32       6.99
H       2.22       0.75       7.87
C       3.73       6.98       4.12
C       3.67       6.98       2.73
C       4.84       6.98       1.93
C       6.03       6.98       2.71
C       6.01       6.98       4.10
C       4.91       6.98       0.43
C       4.83       6.98      13.53
C       3.71       6.98      11.25
C       4.90       6.98      12.03
C       6.07       6.98      11.22
C       6.01       6.98       9.84
C       3.73       6.98       9.86
C       3.73       4.12       6.98
C       3.67       2.73       6.98
C       4.84       1.93       6.98
C       6.03       2.71       6.98
C       6.01       4.10       6.98
C       4.91       0.43       6.98
C       4.83      13.53       6.98
C       3.71      11.25       6.98
C       4.90      12.03       6.98
C       6.07      11.23       6.98
C       6.01       9.84       6.98
C       3.73       9.86       6.98
C       7.33       6.98      13.82
C       2.41       6.98       0.13
C       7.33      13.82       6.98
C       2.41       0.13       6.98
N       4.87       6.98       4.81
N       4.87       6.98       9.14
N       4.88       4.82       6.98
N       4.87       9.14       6.98
F       2.77       6.98       6.98
F       6.97       6.98       6.97
F       8.72       8.18       5.77
F       8.72       5.77       8.18
F       1.02       5.77       5.77
F       8.72       8.18       8.18
