244

Zn      26.10       8.47      16.26
Zn       9.23       7.43      13.75
Zn       9.32       5.74      16.42
Zn      10.80       8.60      16.24
Zn      20.13       1.64      22.96
Zn      18.53       4.43      22.74
Zn      18.42       2.77      25.48
Zn      16.93       1.68      22.85
Zn      18.51      12.60       9.81
Zn      16.93      11.51       7.26
Zn      20.13      11.56       7.19
Zn      18.42      14.31       7.09
Zn       9.22      15.60       0.75
Zn       1.62       0.96       0.60
Zn      16.97       0.97       0.62
Zn      18.45      15.01      29.39
H      29.89      15.29      20.53
H      18.50      16.06      12.60
H      23.33       2.72      20.50
H      20.31       7.03      19.44
H      21.21       7.62      20.86
H      23.04       8.49      19.35
H      22.14       7.89      17.93
H      13.74       9.83       9.28
H      16.72      10.73      13.64
H      15.83      12.27      13.56
H      13.99      11.30      14.98
H      14.87       9.75      15.06
H      23.30       9.82       9.26
H      21.17      12.28      13.51
H      20.28      10.74      13.58
H      22.11       9.75      15.03
H      23.00      11.29      14.95
H      15.89       6.47      20.27
H      13.56       1.69      19.73
H      12.67       2.29      21.16
H      10.95       3.33      19.63
H      11.84       2.73      18.21
H      18.47       9.27      30.18
H      22.99       0.38      29.95
H      25.96      -0.52      25.59
H      34.31      15.36      25.67
H      23.24      -1.08      24.25
H      24.12       0.46      24.17
H      11.85      -1.04      26.49
H      14.17       1.52      30.58
H      15.07      -0.02      30.65
H      16.79       0.91      29.05
H      15.89       2.45      28.98
H      20.70       4.72       2.96
H      11.86      13.60       3.23
H       5.83       0.38       2.35
H       4.93       0.98       3.77
H       6.66      -0.05       5.29
H      16.79      16.77       3.87
H      13.76      -0.11       3.02
H      25.09      12.40       2.67
H      25.97      12.99       4.10
H      24.12      12.14       5.60
H      23.24      11.54       4.17
C      25.21       8.90      13.50
C       9.27       4.48      13.76
C      25.25       6.14      17.82
C      11.84       6.27      17.81
C      27.67      10.63      17.57
C      11.78       8.93      13.50
C      21.08       3.97      21.36
C      18.48       5.71      25.41
C      21.01       1.29      25.73
C      15.91       1.27      25.62
C      18.57      -0.44      21.58
C      15.96       3.99      21.34
C      15.97      11.14      10.04
C      18.53       9.43       5.91
C      21.06      11.14       9.99
C      21.01      13.89       5.66
C      18.46      15.54       9.78
C      15.92      13.82       5.68
C      11.80      16.07       2.15
C      18.59       3.07       1.93
C      25.23      16.06       2.17
C      25.23      -0.93      29.19
C      18.46      12.04      29.44
C      11.79      -0.94      29.19
C      26.58      12.62      18.84
C      28.86      15.00      20.35
C      27.65      11.87      18.36
C      27.78      15.73      20.81
C      28.43      13.86      19.63
C      27.02      13.76      19.56
C       9.25       3.10      11.58
C       9.26      -0.50      11.94
C       9.27       3.25      12.96
C       9.24      -0.63      10.56
C       9.26       0.86      12.31
C       9.25       1.73      11.21
C      22.14       4.52      20.47
C      24.23       5.54      18.73
C      22.10       5.81      19.95
C      24.26       4.22      19.27
C      23.11       6.29      19.11
C      23.25       3.74      20.11
C      21.31       7.10      19.90
C      22.45       7.65      18.95
C      14.92      10.58      10.92
C      12.81       9.47      12.58
C      14.95      10.67      12.31
C      12.78       9.38      11.15
C      13.93      10.13      13.09
C      13.81       9.92      10.37
C      15.73      11.18      13.51
C      14.57      10.57      14.40
C      22.11      10.58      10.88
C      24.19       9.45      12.56
C      22.07      10.67      12.27
C      24.24       9.37      11.14
C      23.08      10.12      13.07
C      23.22       9.91      10.34
C      21.28      11.19      13.46
C      22.42      10.57      14.36
C      14.90       4.57      20.46
C      12.91       5.75      18.71
C      13.77       3.87      20.05
C      14.07       6.46      19.13
C      12.82       4.45      19.21
C      15.03       5.88      19.97
C      13.03       2.55      20.15
C      11.95       3.20      19.20
C      18.49       8.29      25.72
C      18.47       9.51      29.12
C      18.48       6.97      26.17
C      18.47      10.81      28.65
C      18.48       8.58      28.06
C      18.49       9.21      26.79
C      24.16      -0.37      28.31
C      22.05       0.74      26.66
C      24.19      -0.46      26.92
C      22.03       0.82      28.08
C      23.17       0.08      26.14
C      23.05       0.28      28.87
C      24.97      -0.97      25.73
C      23.82      -0.36      24.84
C      12.84      -0.38      28.29
C      14.83       0.69      26.47
C      13.97       0.29      28.75
C      13.67       0.00      26.01
C      14.92       0.80      27.86
C      12.72      -0.52      26.89
C      14.71       0.78      29.98
C      15.79       1.36      28.98
C      17.44       7.44       4.66
C      19.68       5.03       3.16
C      18.52       8.18       5.13
C      18.58       4.31       2.71
C      19.26       6.18       3.87
C      17.86       6.30       3.95
C      12.85      15.50       3.04
C      14.84      14.34       4.79
C      13.97      16.21       3.44
C      13.69      13.62       4.37
C      14.93      15.64       4.29
C      12.73      14.19       3.52
C       5.47       0.12       3.35
C      15.79      16.89       4.31
C      24.16      15.51       3.05
C      22.05      14.49       4.77
C      24.19      14.21       3.57
C      22.03      15.81       4.23
C      23.17      13.74       4.40
C      23.05      16.29       3.40
C      24.98      12.92       3.63
C      23.82      12.38       4.57
S      29.19      12.56      18.80
S      26.23      15.05      20.37
S       9.29       1.73      13.80
S       9.22       0.89       9.71
S      18.47       6.86      27.91
S      18.48      10.92      26.91
S      20.05       7.48       4.68
S      17.05       5.02       3.14
Cl      24.92      12.28      18.63
Cl       9.23       4.34      10.41
Cl      18.51       8.81      24.09
Cl      15.78       7.80       4.88
Cl      25.55       3.10      18.96
Cl      11.49       8.64      10.28
Cl      25.52       8.60      10.27
Cl      14.41       8.09      18.64
Cl      20.74       1.58      28.96
Cl      13.33      -0.25      24.33
Cl      13.35      11.99       4.86
Cl      20.75      16.94       4.53
O      27.76       7.57      15.71
O      24.98       9.06      14.74
O       9.21       5.58      13.12
O      26.26       5.44      17.51
O      26.22       8.31      13.00
O      25.00       7.34      17.43
O       9.34       4.33      15.03
O      10.91       5.44      17.53
O      28.83      10.20      17.26
O      11.91       7.48      17.40
O      26.55      10.11      17.27
O      10.85       8.21      13.01
O      11.92       9.22      14.74
O      18.52       2.62      23.51
O      21.24       2.78      21.79
O      18.53       5.81      24.14
O      20.03       1.91      26.22
O      20.11       4.75      21.62
O      21.23       1.07      24.49
O      18.42       4.64      26.10
O      16.82       1.92      26.24
O      17.42       0.07      21.84
O      15.85       1.07      24.36
O      19.71       0.02      21.92
O      16.94       4.75      21.65
O      15.79       2.78      21.70
O      18.53      12.50       7.85
O      16.94      11.74      10.62
O      17.40       9.90       6.27
O      21.21      11.00       8.74
O      15.83      10.97       8.78
O      20.09      11.73      10.58
O      19.68       9.92       6.17
O      21.23      12.68       6.01
O      18.42      15.67       8.51
O      20.01      14.60       5.99
O      18.50      14.45      10.45
O      15.86      12.60       6.06
O      16.83      14.66       6.00
O      18.48      15.12      31.35
O      10.81      15.31       1.85
O      19.73       2.59       1.62
O      25.10      17.27       1.78
O      11.97      17.27       1.76
O      26.18      15.26       1.87
O      17.45       2.58       1.63
O      25.10      -0.75      30.45
O      18.45      13.14      28.78
O      26.18      -1.55      28.60
O      18.45      11.92      30.71
O      11.97      -0.76      30.44
O      10.81      -1.55      28.64
