312

Zn       9.59      -3.38      19.23
Zn       9.59      -6.21      19.48
Zn       9.59       3.39      19.23
Zn       9.59       6.21      19.48
Zn      15.80       0.00       6.33
Zn      12.97       0.00       6.58
Zn       6.21       0.00       6.58
Zn       3.38      -0.00       6.33
H      10.47      -1.19      17.27
H      10.48      10.78      21.44
H       8.71      10.78      21.44
H       8.71       1.19      17.27
H       8.71       8.40      21.44
H      10.48       8.40      21.44
H       8.71      -1.19      17.27
H      10.47       1.19      17.27
H      -1.19      -0.88       4.37
H      10.78      -0.88       8.54
H       8.40       0.88       8.54
H       8.40      -0.88       8.54
H      10.78       0.88       8.54
H       1.19      -0.88       4.37
H       1.19       0.88       4.37
H      -1.19       0.89       4.37
H       7.50      -1.19      19.35
H       7.50      10.78      19.36
H      11.68      10.78      19.36
H      11.68       1.19      19.35
H      11.68       8.40      19.36
H       7.50       8.40      19.36
H      11.68      -1.19      19.35
H       7.50       1.19      19.35
H      -1.19       2.09       6.45
H      10.78       2.09       6.45
H       8.40      -2.09       6.45
H       8.40       2.09       6.45
H      10.78      -2.09       6.45
H       1.19       2.09       6.45
H       1.19      -2.09       6.45
H      -1.19      -2.09       6.45
H       8.39      -1.18      20.88
H       8.39      10.77      17.83
H      10.80      10.77      17.83
H      10.79       1.18      20.88
H      10.80       8.41      17.83
H       8.39       8.41      17.83
H      10.79      -1.18      20.88
H       8.39       1.18      20.88
H      -1.18       1.20       7.98
H      10.77       1.20       4.93
H       8.41      -1.20       4.92
H       8.41       1.20       4.92
H      10.77      -1.20       4.93
H       1.18       1.20       7.98
H       1.18      -1.20       7.98
H      -1.18      -1.20       7.98
H       6.68      -2.46      22.26
H       6.68      12.06      16.45
H      12.51      12.06      16.45
H      -6.68       2.47      22.26
H      12.50       7.13      16.45
H       6.68       7.13      16.45
H      -6.68      -2.46      22.26
H       6.68       2.47      22.26
H      -2.47       2.91       9.36
H      12.06       2.91       3.55
H       7.13      16.27       3.55
H       7.13       2.91       3.55
H      12.06      16.27       3.55
H       2.46       2.91       9.36
H       2.46      -2.91       9.36
H      -2.47      -2.91       9.36
H       5.11      -2.26      24.22
H       5.12      11.85      14.49
H      -5.11      11.85      14.49
H      -5.11       2.26      24.22
H      -5.12       7.33      14.49
H       5.11       7.33      14.49
H      -5.12      -2.26      24.22
H       5.12       2.26      24.22
H      -2.26       4.47      11.32
H      11.85       4.48       1.59
H       7.34      14.71       1.58
H       7.33       4.47       1.58
H      11.86      14.71       1.58
H       2.26       4.48      11.32
H       2.27      14.71      11.32
H      -2.26      14.70      11.32
H       5.32      -6.52      24.80
H       5.32      -3.07      13.92
H      13.86      -3.07      13.92
H      -5.32       6.52      24.79
H      13.86       3.07      13.92
H       5.32       3.07      13.92
H      -5.33      -6.52      24.79
H       5.32       6.52      24.79
H      12.66       4.27      11.89
H      16.11       4.27       1.01
H       3.08      14.91       1.01
H       3.07       4.27       1.02
H      16.12      14.91       1.01
H       6.52       4.27      11.89
H       6.52      -4.27      11.89
H      12.66      -4.27      11.89
H       6.81      -6.71      22.80
H       6.81      -2.88      15.91
H      12.37      -2.87      15.91
H      -6.81       6.72      22.80
H      12.37       2.88      15.91
H       6.81       2.88      15.91
H      -6.82      -6.71      22.80
H       6.81       6.72      22.80
H      12.47       2.78       9.89
H      16.31       2.78       3.01
H       2.88      16.40       3.01
H       2.88       2.78       3.01
H      16.31      16.40       3.01
H       6.72       2.78       9.90
H       6.71      -2.78       9.89
H      12.47      -2.78       9.90
C       9.59      -0.77      17.77
C       9.59      10.37      20.94
C       9.59       0.78      17.77
C       9.59       8.82      20.94
C      -0.78       0.00       4.87
C      10.37       0.00       8.04
C       8.82       0.00       8.04
C       0.77       0.00       4.87
C       8.38      -0.77      19.87
C       8.38      10.36      18.85
C      10.80      10.36      18.84
C      10.80       0.77      19.87
C      10.80       8.82      18.85
C       8.38       8.82      18.85
C      10.80      -0.77      19.87
C       8.38       0.77      19.87
C      -0.77       1.21       6.96
C      10.36       1.21       5.94
C       8.82      -1.21       5.94
C       8.82       1.21       5.94
C      10.36      -1.21       5.94
C       0.77       1.21       6.96
C       0.77      -1.21       6.96
C      -0.77      -1.21       6.96
C       7.78      -4.72      21.26
C       7.79      -4.87      17.45
C      11.39      -4.87      17.45
C      -7.79       4.72      21.26
C      11.40       4.87      17.45
C       7.79       4.87      17.45
C      -7.79      -4.72      21.26
C       7.79       4.73      21.26
C      14.46       1.80       8.36
C      14.31       1.80       4.54
C       4.87      17.38       4.54
C       4.87       1.80       4.55
C      14.32      17.38       4.55
C       4.72       1.80       8.36
C       4.72      -1.80       8.36
C      14.46      -1.80       8.36
C       6.84      -4.60      22.42
C       6.84      -4.99      16.29
C      12.34      -4.99      16.29
C      -6.84       4.60      22.42
C      12.34       4.99      16.29
C       6.85       4.99      16.29
C      -6.85      -4.60      22.42
C       6.85       4.60      22.42
C      14.58       2.74       9.52
C      14.19       2.75       3.38
C       5.00      16.44       3.38
C       4.99       2.74       3.38
C      14.20      16.44       3.38
C       4.60       2.75       9.52
C       4.60      -2.74       9.52
C      14.58      -2.75       9.52
C       6.36      -3.34      22.82
C       6.37      12.93      15.89
C      12.82      12.93      15.89
C      -6.37       3.34      22.82
C      12.81       6.25      15.89
C       6.37       6.25      15.89
C      -6.37      -3.34      22.82
C       6.37       3.35      22.82
C      -3.34       3.22       9.92
C      12.93       3.23       2.98
C       6.25      15.96       2.98
C       6.25       3.22       2.98
C      12.94      15.96       2.98
C       3.34       3.22       9.92
C       3.34      -3.22       9.92
C      -3.34      -3.22       9.92
C       5.51      -3.23      23.91
C       5.52      12.82      14.80
C      13.67      12.82      14.80
C      -5.51       3.23      23.91
C      13.67       6.36      14.80
C       5.51       6.36      14.80
C      -5.52      -3.23      23.91
C       5.52       3.23      23.91
C      -3.23       4.07      11.01
C      12.82       4.08       1.89
C       6.37      15.10       1.89
C       6.36       4.08       1.89
C      12.82      15.11       1.89
C       3.23       4.08      11.01
C       3.23      -4.08      11.01
C      -3.23      -4.08      11.01
C       5.15      -4.37      24.65
C       5.15      -5.22      14.06
C      -5.15      -5.22      14.06
C      -5.15       4.37      24.65
C      -5.15       5.22      14.06
C       5.15       5.22      14.06
C      -5.15      -4.37      24.65
C       5.15       4.37      24.65
C      14.81       4.44      11.74
C      13.96       4.44       1.16
C       5.23      14.74       1.16
C       5.22       4.44       1.16
C      13.97      14.74       1.16
C       4.37       4.44      11.74
C       4.37      14.74      11.74
C      14.82      14.74      11.74
C       5.62      -5.63      24.24
C       5.62      -3.96      14.47
C      13.56      -3.96      14.47
C      -5.62       5.63      24.24
C      13.56       3.96      14.47
C       5.62       3.96      14.47
C      -5.63      -5.63      24.24
C       5.63       5.63      24.24
C      13.55       3.97      11.34
C      15.22       3.97       1.56
C       3.97      15.21       1.56
C       3.96       3.97       1.56
C      15.23      15.22       1.56
C       5.63       3.97      11.34
C       5.63      -3.97      11.34
C      13.55      -3.97      11.34
C       6.45      -5.74      23.13
C       6.45      -3.85      15.58
C      12.73      -3.85      15.58
C      -6.45       5.74      23.13
C      12.73       3.85      15.58
C       6.45       3.85      15.58
C      -6.46      -5.74      23.13
C       6.45       5.75      23.13
C      13.44       3.14      10.23
C      15.33       3.14       2.68
C       3.85      16.04       2.68
C       3.85       3.14       2.68
C      15.34      16.04       2.68
C       5.74       3.14      10.23
C       5.74      -3.14      10.23
C      13.44      -3.14      10.23
C      13.81       5.38       0.00
C       4.22      13.81      12.90
C      -4.21      13.81      12.90
C      -4.21       4.22      25.81
C      -4.22       5.37      12.90
C       4.22       5.38      12.90
C      -4.22      -4.22      25.81
C      13.81      13.81       0.00
N       9.59      -1.28      19.17
N       9.59      10.88      19.54
N       9.59       1.29      19.17
N       9.59       8.31      19.54
N      -1.29       0.00       6.27
N      10.88       0.00       6.64
N       8.31       0.00       6.64
N       1.28      -0.00       6.27
O       8.16      -3.64      20.71
O       8.16      -5.95      18.00
O      11.01      -5.95      18.00
O      11.01       3.64      20.71
O      11.02       5.95      18.00
O       8.17       5.95      18.00
O      11.01      -3.64      20.71
O       8.17       3.64      20.71
O      15.54       1.43       7.81
O      13.23       1.42       5.09
O       5.95      -1.43       5.10
O       5.95       1.42       5.10
O      13.23      -1.42       5.10
O       3.64       1.43       7.81
O       3.64      -1.42       7.81
O      15.54      -1.42       7.81
O       8.15      -5.90      20.92
O       8.15      -3.70      17.79
O      11.03      -3.69      17.79
O      11.03       5.90      20.92
O      11.03       3.69      17.79
O       8.15       3.70      17.79
O      11.03      -5.89      20.92
O       8.15       5.90      20.92
O      13.28       1.44       8.02
O      15.49       1.44       4.88
O       3.69      -1.44       4.88
O       3.70       1.44       4.88
O      15.49      -1.44       4.89
O       5.90       1.44       8.02
O       5.89      -1.44       8.02
O      13.28      -1.44       8.02
O      12.94       6.25       0.00
O       3.35      12.94      12.90
O      -3.34      12.93      12.90
O      -3.34       3.35      25.81
O      -3.35       6.24      12.90
O       3.34       6.25      12.90
O      -3.35      -3.35      25.81
O      12.94      12.94       0.00
