55

Al      -0.15       4.05       6.92
H       1.86      14.17       1.06
H       1.94       9.87       1.07
H       1.78      12.02       4.79
H       3.19      -0.42       2.35
H       0.60      -2.22       5.33
H       0.54       5.80      13.08
H       3.12       2.32      13.16
H       3.13       8.48       2.32
H       0.59      10.25       5.36
H      -0.04       0.75       6.89
H       3.79       2.35       4.19
H      -0.07       5.58       9.76
H       3.77       2.44       9.81
H       3.29       5.46       4.06
H       0.43       7.24       7.13
C       1.87       4.02       9.02
C       1.86       5.83       5.89
C       1.85       2.21       5.91
C       1.93      12.02       0.90
C       1.86      13.22       1.61
C       1.79      13.24       3.01
C       1.79      12.02       3.70
C       1.86      10.80       3.01
C       1.93      10.81       1.61
C       2.60       0.83       3.97
C       2.58      -0.36       3.25
C       1.90      -1.48       3.75
C       1.19      -1.39       4.95
C       1.13      -0.18       5.64
C       1.86       0.93       5.16
C       1.14       5.04      12.58
C       1.13       5.01      11.19
C       1.87       4.03      10.51
C       2.59       3.06      11.23
C       2.53       3.06      12.62
C       1.82       4.06      13.30
C       2.55       8.42       3.24
C       2.59       7.22       3.94
C       1.86       7.07       5.17
C       1.14       8.21       5.66
C       1.17       9.42       4.97
C       1.86       9.52       3.75
O       0.89       3.03       5.69
O       0.92       3.42       8.42
O       0.94       5.60       6.79
O       2.81       2.44       6.73
O       2.78       4.94       5.65
O       2.83       4.62       8.42
O       0.39      -0.13       6.79
O       3.31       1.89       3.47
O       0.41       5.97      10.52
O       3.33       2.09      10.62
O       3.30       6.20       3.40
O       0.43       8.18       6.81
