74

Zn       3.63       5.00       8.42
Zn       3.68       7.86       8.71
H       2.01       9.75       7.38
H       1.50      12.21       7.28
H       4.64      12.80      10.19
H       2.79       0.06       6.85
H       6.07       0.70       9.59
H       5.49       3.16       9.56
H       3.19       8.84       4.57
H       3.39       9.25       2.10
H       4.95       5.27       1.62
H       2.39       7.55      15.47
H       4.05       3.61      15.05
H       4.20       3.96      12.57
H       6.70       7.68       6.41
H       0.64       7.86       6.55
C       3.72       6.69       5.98
C       1.06       6.53       8.65
C       3.59       6.08      11.13
C       6.25       6.44       8.57
C       2.56      10.47       7.98
C       2.28      11.82       7.93
C       3.04      12.68       8.74
C       4.04      12.15       9.56
C       4.24      10.77       9.55
C       3.40       0.72       7.46
C       4.45       0.21       8.22
C       5.24       1.08       9.00
C       4.92       2.42       8.99
C       3.16       2.10       7.51
C       3.92       6.83       4.49
C       3.57       8.06       3.90
C       3.68       8.30       2.54
C       4.18       7.27       1.72
C       4.56       6.05       2.28
C       4.43       5.82       3.65
C       2.80       6.77      14.83
C       3.22       5.57      15.40
C       3.73       4.54      14.59
C       3.82       4.75      13.23
C       3.42       5.96      12.62
C       2.90       6.97      13.45
C       7.76       6.47       8.62
C       8.47       7.11       7.55
C       8.46       5.92       9.68
C       7.79       7.70       6.45
C       8.49       8.35       5.45
C      -0.45       6.53       8.66
C      -1.16       5.95       9.70
C      -1.14       7.15       7.58
C      -0.45       7.81       6.53
C      -1.13       8.42       5.50
Br      -0.19       5.24      11.18
Br       7.51       5.18      11.15
Br       7.50       9.13       4.03
Br      -0.14       9.36       4.19
N       3.52       9.94       8.78
N       2.88      14.09       8.82
N       4.63      -1.20       8.13
N       3.89       2.93       8.26
N       4.34       7.36       0.32
N       3.06       5.50      16.81
Cl       5.44      10.09      10.56
Cl       1.88       2.76       6.59
Cl       4.97       4.27       4.20
Cl       2.30       8.48      12.84
O       3.78       5.52       6.47
O       3.50       7.76       6.63
O       1.62       7.65       8.85
O       1.61       5.42       8.39
O       3.78       7.24      10.66
O       3.55       4.99      10.47
O       5.70       5.31       8.54
O       5.69       7.58       8.54
