84

Al       0.26      12.67       8.49
Al       3.58       0.05       8.44
Al       7.06       6.35      16.90
Al       3.62       6.37      16.91
H       1.99      10.97       8.10
H       5.34       1.78       8.21
H       1.70       8.11       0.19
H       5.14       4.60       0.19
H       0.59       9.04      13.88
H       3.19       8.73      13.66
H       0.56      10.50      11.82
H       3.83       3.57       2.90
H       6.47       4.03       3.33
H       3.86       2.13       4.98
H       6.69       3.55      13.98
H       4.05       4.10      13.57
H       6.71       2.10      11.91
H       0.46       8.48       3.30
H       3.09       9.04       3.15
H       0.55       9.88       5.40
C       5.43      11.13       6.65
C       5.39      11.22      10.32
C       1.85       1.51      10.32
C       1.85       1.51       6.60
C       5.16       7.88       1.83
C       5.34       7.90      15.09
C       1.92       4.82      15.08
C       1.70       4.79       1.80
C       5.34      10.40      11.58
C       5.34       8.78      13.88
C       4.16       9.92      12.13
C       6.54       9.29      13.37
C       4.13       9.11      13.26
C       6.53      10.08      12.23
C       1.78       2.30       5.33
C       1.72       3.91       3.01
C       0.58       2.81       4.82
C       2.92       3.36       3.46
C       0.53       3.62       3.69
C       2.95       2.58       4.61
C       1.91       2.31      11.58
C       1.92       3.93      13.88
C       3.09       2.85      12.09
C       0.73       3.36      13.43
C       3.12       3.67      13.21
C       0.73       2.56      12.29
C       5.35      10.26       5.43
C       5.22       8.70       3.08
C       4.13       9.98       4.79
C       6.45       8.93       3.72
C       4.05       9.23       3.63
C       6.50       9.70       4.88
N       2.86      10.30      11.55
N       6.19       2.43       5.43
N       4.39       2.49      11.49
N       2.86      10.44       5.36
O       6.58      11.43       7.09
O       4.27      11.57       9.84
O       2.96       1.30       9.72
O       0.75       1.26       7.17
O       0.71       1.13       9.93
O       3.02       1.18       6.99
O       4.31      11.49       7.13
O       6.53      11.46       9.84
O       1.99      11.89       8.44
O       5.32       0.83       8.44
O       6.29       7.58       1.32
O       4.21       7.60      15.59
O       3.06       5.20      15.51
O       0.55       5.15       1.37
O       0.79       5.12      15.58
O       2.83       5.10       1.31
O       4.01       7.56       1.39
O       6.48       7.53      15.52
O       1.90       7.17      16.93
O       5.34       5.55      16.92
O       2.38      11.36      11.96
O       2.34       9.52      10.75
O       5.72       1.35       5.05
O       5.65       3.22       6.22
O       4.84       1.39      11.85
O       4.94       3.31      10.76
O       2.37       9.72       6.25
O       2.33      11.44       4.87
