166

Zn       9.04       5.26      12.84
Zn       1.67       1.09       0.48
Zn       9.13      14.10       0.44
Zn      16.58       1.02       0.49
Zn      18.09      10.59       9.25
Zn      16.48       9.74       6.66
Zn      19.73       9.69       6.66
Zn      18.17      12.47       6.67
H      11.83       6.51      10.00
H      13.08       5.55      10.79
H      14.69       6.51       9.40
H      13.45       7.49       8.62
H      15.89       7.42      11.48
H      15.48       9.02      12.09
H      13.84       8.08      13.46
H      14.27       6.48      12.87
H      12.86       9.76       9.51
H      13.68      10.40      10.95
H      12.05       9.44      12.30
H      11.23       8.79      10.87
H      17.61      18.02      10.02
H      16.17      17.43      10.84
H      16.17      15.53       9.49
H      17.61      16.11       8.66
H      16.41      14.05      11.56
H      18.01      13.63      12.15
H      18.02      15.53      13.50
H      16.42      15.95      12.92
H      19.91      15.50       9.52
H      20.08      14.48      10.95
H      20.08      16.38      12.30
H      19.91      17.40      10.87
H      24.74       7.21      10.07
H      24.97       8.75      10.90
H      23.39       9.74       9.52
H      23.14       8.21       8.69
H      21.99      10.31      11.57
H      20.77       9.18      12.14
H      22.35       8.16      13.52
H      23.57       9.30      12.96
H      21.39       6.58       9.51
H      20.42       6.97      10.94
H      22.01       5.96      12.30
H      23.00       5.58      10.88
H      14.12      15.57       2.55
H      14.37      14.31       1.35
H      16.00      13.34       2.70
H      15.76      14.59       3.91
H      14.62      11.19       2.81
H      13.44      10.98       4.10
H      11.79      11.96       2.77
H      12.96      12.16       1.47
H      14.05      14.28       5.75
H      13.09      12.80       5.82
H      11.46      13.79       4.48
H      12.43      15.27       4.39
H      20.23       4.24       3.22
H      19.28       3.35       4.41
H      19.25       5.23       5.79
H      20.20       6.12       4.60
H      16.70       5.30       5.66
H      15.91       6.23       4.39
H      15.94       4.35       3.00
H      16.71       3.42       4.27
H      19.07       7.44       2.78
H      17.30       7.48       2.68
H      17.32       5.60       1.31
H      19.09       5.56       1.40
H      24.39      11.76       2.51
H      23.14      12.16       1.34
H      21.54      11.18       2.71
H      22.78      10.78       3.90
H      20.33      13.42       2.86
H      20.72      14.55       4.16
H      22.36      15.53       2.81
H      21.94      14.42       1.51
H      23.36      12.40       5.73
H      22.53      13.96       5.85
H      24.15      14.92       4.48
H      24.98      13.36       4.36
C      11.54       6.81      12.69
C      12.63       7.41      11.80
C      12.80       6.58      10.51
C      13.87       7.22       9.60
C      14.45       8.48      10.26
C      15.05       8.12      11.63
C      13.97       7.49      12.54
C      13.29       9.48      10.49
C      12.20       8.84      11.39
C      15.50       9.14       9.37
C      18.08      18.15      12.70
C      18.02      16.90      11.82
C      17.19      17.15      10.55
C      17.19      15.89       9.65
C      18.02      14.77      10.31
C      17.43      14.44      11.69
C      17.43      15.70      12.59
C      19.47      15.28      10.50
C      19.47      16.55      11.40
C      18.08      13.54       9.42
C      24.56       6.73      12.74
C      23.54       7.44      11.86
C      24.21       8.02      10.60
C      23.15       8.68       9.68
C      21.76       8.57      10.31
C      21.77       9.24      11.70
C      22.82       8.57      12.61
C      21.42       7.06      10.50
C      22.48       6.39      11.41
C      20.68       9.16       9.41
C      11.67      14.54       1.89
C      12.76      13.90       2.74
C      14.15      14.48       2.41
C      15.23      13.84       3.31
C      14.59      12.80       4.25
C      13.88      11.72       3.42
C      12.79      12.37       2.54
C      13.54      13.52       5.13
C      12.46      14.18       4.24
C      15.63      12.17       5.18
C      18.12       3.09       1.93
C      18.10       4.30       2.86
C      19.31       4.28       3.81
C      19.29       5.52       4.73
C      18.07       6.41       4.41
C      16.78       5.59       4.60
C      16.79       4.34       3.68
C      18.16       6.84       2.92
C      18.17       5.59       2.00
C      18.07       7.67       5.26
C      24.66      14.40       1.89
C      23.58      13.75       2.74
C      23.42      12.26       2.40
C      22.35      11.61       3.31
C      21.77      12.66       4.28
C      21.16      13.81       3.47
C      22.23      14.47       2.57
C      22.93      13.22       5.14
C      24.01      13.86       4.23
C      20.73      12.04       5.21
O       9.07       5.30      14.80
O      11.71       6.91      13.95
O      10.54       6.28      12.10
O      15.30       9.12       8.11
O      16.49       9.68       9.95
O      18.13      17.98      13.96
O      18.10      19.28      12.10
O      18.16      13.74       8.16
O      18.06      12.40       9.99
O      24.42       6.84      14.00
O      25.47       6.06      12.14
O      20.86       9.07       8.15
O      19.66       9.68       9.99
O      10.70      13.79       1.55
O      11.80      15.78       1.62
O      16.63      12.89       5.51
O      15.41      10.98       5.57
O      17.00       2.61       1.57
O      19.27       2.66       1.56
O      19.21       8.14       5.58
O      16.94       8.17       5.56
O      24.53      15.65       1.64
O      25.62      13.66       1.50
O      20.88      10.82       5.53
O      19.80      12.81       5.62
O      18.12      10.61       7.29
