124

Zn       9.80       8.04       8.53
Zn       6.93       7.97       8.29
H       7.88       4.04       5.83
H      11.77       5.72      15.87
H      12.25      10.29      16.62
H       4.25       6.28       0.28
H       9.96      11.35      14.30
H       6.58       5.11       2.40
H       5.52      13.76      11.16
H       9.75       2.19       4.79
H       8.74       0.26      11.55
H       7.05       0.11       5.45
H       5.05       0.47       8.18
H       9.16      11.90      10.61
H      11.44      15.49       7.76
H       4.04       6.73      11.68
H      12.74       9.29       5.17
H      15.80       9.68      11.05
H       0.95       6.28       5.83
H      13.24       4.37       9.49
H       3.54      11.57       7.41
H       6.47       5.46      11.18
H      10.43      10.75       5.66
H       5.56      10.00       2.51
C       8.24      10.55       7.96
C       6.96       0.53       8.42
C       8.32      14.61       8.27
C       8.27       1.40       8.59
C       8.26      13.21       8.11
C       8.33       2.80       8.70
C      15.49       9.02       9.31
C       1.25       6.95       7.56
C       1.74       7.74       9.60
C      15.01       8.23       7.27
C       1.54       9.14       7.85
C       8.40       5.46       8.80
C      15.21       6.83       9.02
C       2.42       7.86       8.19
C      14.32       8.10       8.68
C       8.82       7.53       5.90
C       7.99       8.56      10.90
C       3.81       7.78       8.00
C      12.93       8.19       8.85
C       8.79       7.45       4.39
C       7.95       8.78      12.40
C       8.02       6.46       3.73
C       8.82       0.30       9.65
C       8.65       9.84      13.01
C       7.70       6.64       2.36
C       8.86       9.82      14.41
C       8.25       7.72       1.63
C       8.29       8.79      15.20
C       9.14       8.58       2.26
C       7.47       7.84      14.59
C       9.38       8.47       3.65
C       7.32       7.82      13.19
C       7.82       7.88       0.22
C       7.79      15.68       7.24
C       8.69       8.69      16.63
C       7.58       5.21       4.37
C       9.18      10.99      12.28
C      14.69       5.59       9.67
C       2.07      10.38       7.21
C       6.43       6.80      12.54
C      10.35       9.40       4.32
C       5.98       9.56       0.73
C      10.52       7.12      15.99
C       9.74       9.74       1.54
C       7.67      15.42       9.47
C       6.88       6.71      15.38
C       6.95      14.89      10.64
C       9.82       1.13       6.37
C       2.48       7.62      10.89
C      14.27       8.36       5.98
C       8.96       0.56       7.42
C       8.23      12.00       7.98
C       8.39       4.01       8.79
C       9.66      15.48       8.45
N       4.97       7.74       7.88
N      11.77       8.23       8.93
O       9.39      10.01       8.10
O       8.24       4.88       5.49
O       9.98      11.81      12.77
O       8.69      11.16      11.03
O      15.35      10.01      10.21
O       1.40       5.95       6.66
O      15.19       5.05      10.63
O      13.57       5.17       9.03
O       1.58      10.94       6.25
O       3.19      10.78       7.86
O       5.21       6.80      12.72
O       7.25       6.01       8.83
O       7.10       5.97      11.74
O      11.56       9.32       4.13
O       9.75      10.27       5.14
O       5.22      10.42       0.29
O       6.14       9.34       2.06
O      10.52       7.31      14.79
O      11.28       6.18      16.60
O       9.94      10.83       2.05
O      10.05       9.45       0.25
O       6.80       5.57      14.97
O       7.12       9.97       7.84
O       6.43       7.10      16.60
O       9.62      10.73      15.03
O       6.87       5.80       1.72
O       7.25      15.17      11.80
O       5.92      14.07      10.32
O      11.03       0.97       6.31
O       9.11       1.85       5.45
O       9.38       0.58      10.86
O       7.21      15.31       6.05
O       5.73       1.13       8.42
O       9.54       6.02       8.74
O      10.92      14.95       8.41
O       2.21       8.39      11.82
O       3.43       6.71      10.86
O      14.55       7.59       5.04
O      13.34       9.28       6.00
O       9.94       7.68       6.48
O       6.89       8.52      10.27
O       7.67       7.53       6.42
O       9.15       8.36      10.44
O       6.72       4.46       3.87
