104

Zn       6.69      10.24       8.84
Zn       6.44       7.42       8.89
H       5.73      11.47      15.34
H       5.26       6.23       2.54
H       6.15      11.22      12.89
H       5.92       6.57       4.93
H       6.16       7.20      15.77
H       5.12      10.52       2.05
H       8.91      14.60       7.12
H       3.57       3.25       9.96
H       5.65      12.61      10.22
H       7.44       5.03       7.49
H       5.94      15.12      10.22
H       6.88       2.58       7.26
H       9.62       7.52       6.32
H       9.52       5.96       7.15
H       2.91       5.30       6.15
H       1.71       5.66       4.88
H       2.97       6.85       5.28
H      10.15      11.42       9.08
H       2.91      11.72       9.82
H      10.67      11.73      12.10
H       9.94      12.97      11.06
H       9.08      11.43      11.34
H       8.59       6.33      13.69
H       8.24       7.19      12.16
H       7.21       5.16      11.20
H       8.85       4.78      11.76
H       7.44       4.27      12.73
H       4.14      10.90       5.76
H       3.80      11.83       4.26
H       5.44      13.62       5.13
H       3.99      13.43       6.14
H       5.53      12.70       6.66
H      10.28      13.00       6.70
H      10.23      11.29       6.19
H       9.93      12.71       4.18
H       8.41      11.84       4.52
H       8.55      13.56       4.92
H       3.22       4.62      11.59
H       2.25       5.48      10.34
H       2.74       7.67      11.50
H       1.99       6.52      12.63
H       3.76       6.81      12.69
C       6.32       8.79       6.28
C       6.57       9.07      11.46
C       5.82       9.48      17.14
C       4.92       8.20       0.73
C       8.19      14.19       7.82
C       4.43       3.62       9.41
C       7.96      12.81       7.90
C       4.84       4.96       9.51
C       6.36      13.11       9.56
C       6.60       4.58       8.03
C       6.52      14.48       9.55
C       6.29       3.24       7.89
C       7.46      15.04       8.66
C       5.18       2.74       8.62
C       7.67      16.44       8.61
C       4.87       1.36       8.58
C       9.10       8.29       8.80
C       4.04       9.16       8.99
C      10.59       8.21       8.59
C       2.57       9.10       9.21
C       5.90      10.49      14.90
C       5.36       7.24       2.95
C       6.14      10.35      13.55
C       5.73       7.42       4.28
C       6.38       9.10      12.95
C       5.88       8.70       4.84
C       6.38       7.96      13.79
C       5.62       9.82       4.01
C       6.14       8.09      15.15
C       5.27       9.64       2.68
C       5.91       9.35      15.74
C       5.16       8.35       2.12
C      10.22       6.70       6.74
C       2.30       6.10       5.70
C      10.75      11.29       9.98
C      10.07      11.89      11.19
C       7.90       6.38      12.83
C       7.84       5.07      12.09
C       4.55      11.65       5.06
C       4.90      12.93       5.79
C       9.64      12.22       6.25
C       9.10      12.61       4.89
C       3.09       5.58      11.05
C       2.89       6.72      12.02
N       7.06      12.29       8.75
N       5.91       5.42       8.82
O       6.23       9.91       6.87
O       6.31       7.97      10.86
O       6.74       7.70       6.81
O       6.93      10.15      10.90
O       8.57       9.42       8.61
O       4.59       8.12       8.51
O       8.49       7.20       9.08
O       4.65      10.25       9.28
O       2.22       7.20       7.81
O      10.88       9.87      10.22
O       6.58       6.67      13.33
O       5.75      11.12       4.45
O       8.58      11.88       7.17
O       4.29       5.87      10.30
