142

Zn       9.87       5.53      15.58
Zn       9.99      15.47       0.36
Zn      18.58       0.55       0.45
Zn       1.73       0.67       0.43
Zn      19.95      11.47      10.58
Zn      19.97      13.30       8.02
Zn      18.36      10.50       7.98
Zn      21.56      10.48       8.02
H      20.19      16.83       9.30
H      19.38      18.30       9.89
H      21.12      18.12      10.08
H      19.37      20.18      11.37
H      21.11      20.03      11.57
H      20.19      21.11      12.65
H      23.96       7.92       9.47
H      25.63       7.59      10.02
H      24.33       6.47      10.44
H      27.16       6.53      11.56
H      25.84       5.43      11.99
H      27.33       5.48      12.98
H      15.19       8.91       9.28
H      14.37       7.50       9.99
H      13.55       9.07       9.95
H      12.68       6.66      11.49
H      11.88       8.24      11.47
H      11.39       7.01      12.67
H      25.00      11.29       6.62
H      25.21      10.99       4.89
H      26.52      11.76       5.81
H      27.12      11.98       3.38
H      28.21      12.83       4.49
H      28.34      13.13       2.75
H      16.06      10.85       5.03
H      14.35      11.22       4.72
H      15.48      11.14       3.37
H      12.83      12.17       3.07
H      14.02      12.15       1.76
H      12.50      13.06       1.56
H      17.39       7.33       6.27
H      16.97       6.70       4.65
H      17.23       5.57       5.98
H      17.01       4.77       3.23
H      17.31       3.64       4.55
H      17.49       3.09       2.86
C      19.81      20.31      15.32
C      19.82      19.13      14.45
C      19.69      16.78      13.77
C      19.82      15.56      11.65
C      19.84      14.42      10.73
C      19.96      16.93      11.43
C      20.17      17.57      10.10
C      19.89      17.64      12.67
C      19.97      19.02      13.07
C      20.17      20.16      12.12
C      27.29       6.77      15.48
C      26.29       7.39      14.60
C      24.54       8.92      13.83
C      23.40       9.34      11.70
C      22.46       9.95      10.75
C      24.32       8.30      11.56
C      24.57       7.53      10.30
C      24.99       8.05      12.81
C      26.00       7.15      13.27
C      26.62       6.09      12.41
C      12.20       7.29      15.36
C      13.19       7.91      14.48
C      15.27       9.00      13.78
C      16.34       9.53      11.64
C      17.37      10.01      10.70
C      15.11       8.92      11.42
C      14.53       8.59      10.08
C      14.48       8.61      12.68
C      13.26       7.97      13.09
C      12.24       7.44      12.14
C      27.66      15.77       2.01
C      26.70      15.26       3.00
C      24.70      15.19       4.41
C      23.65      13.54       5.89
C      22.63      12.91       6.73
C      24.85      13.05       5.39
C      25.43      11.70       5.71
C      25.47      14.01       4.52
C      26.64      14.05       3.68
C      27.63      12.94       3.56
C      12.62      15.88       1.64
C      13.66      15.32       2.52
C      15.47      15.23       4.16
C      16.61      13.47       5.43
C      17.52      12.84       6.40
C      15.67      12.91       4.57
C      15.38      11.45       4.42
C      15.00      13.95       3.83
C      13.94      14.00       2.86
C      13.28      12.78       2.28
C      20.12       2.56       1.98
C      20.12       3.71       2.89
C      20.99       5.60       4.19
C      20.02       7.30       5.67
C      19.96       8.47       6.55
C      19.03       6.44       5.20
C      17.57       6.52       5.56
C      19.59       5.45       4.34
C      19.09       4.34       3.57
C      17.65       3.93       3.54
S      19.58      17.60      15.26
S      19.60      15.13      13.34
S      25.33       8.66      15.32
S      23.33      10.00      13.33
S      14.58       8.61      15.29
S      16.75       9.73      13.33
S      25.37      16.34       3.35
S      23.27      15.16       5.33
S      14.67      16.49       3.33
S      16.72      15.21       5.33
S      21.69       4.44       3.16
S      21.62       6.92       5.07
O      19.71      23.21      17.53
O      19.55      20.09      16.56
O      20.07      21.45      14.81
O      19.99      14.62       9.48
O      19.71      13.27      11.30
O      27.27       7.14      16.71
O      28.12       5.94      14.97
O      22.51       9.61       9.52
O      21.66      10.81      11.26
O      12.49       7.26      16.60
O      11.13       6.82      14.83
O      17.13      10.01       9.44
O      18.45      10.41      11.26
O      27.34      16.91       1.51
O      28.69      15.08       1.71
O      22.81      11.71       7.13
O      21.61      13.65       6.98
O      12.66      17.16       1.49
O      11.76      15.09       1.12
O      17.40      11.60       6.65
O      18.38      13.64       6.93
O      21.27       2.19       1.56
O      18.99       2.03       1.67
O      18.83       8.83       7.04
O      21.08       9.06       6.76
O      19.95      11.43       8.62
