52

Cu       3.99       6.87       6.88
Si       7.98       6.87       6.88
H       6.07       9.02       6.88
H       6.15      11.51       6.88
H       1.90       9.02       6.88
H       6.09       4.72       6.88
H       1.91       4.73       6.88
H       1.83       2.24       6.88
H       6.07       6.88       4.73
H       6.15       6.88       2.25
H       1.90       6.87       4.73
H       6.09       6.87       9.03
H       1.91       6.87       9.02
H       1.83       6.87      11.51
C       5.15       9.61       6.88
C       5.19      10.99       6.88
C       3.99      11.73       6.88
C       2.79      10.99       6.88
C       2.82       9.60       6.88
C       4.01      13.14       6.88
C       3.97       0.61       6.88
C       3.99       2.02       6.88
C       5.20       2.75       6.88
C       5.16       4.15       6.88
C       2.83       4.14       6.88
C       2.79       2.76       6.88
C       5.15       6.87       4.14
C       5.19       6.88       2.76
C       3.99       6.88       2.02
C       2.79       6.88       2.76
C       2.82       6.87       4.15
C       4.01       6.88       0.61
C       3.97       6.87      13.14
C       3.99       6.87      11.74
C       5.20       6.87      11.00
C       5.16       6.87       9.60
C       2.83       6.87       9.61
C       2.79       6.87      10.99
N       3.99       8.93       6.88
N       4.00       4.82       6.88
N       3.99       6.87       4.82
N       4.00       6.87       8.93
Cl       1.27      11.80       6.88
Cl       6.72       1.95       6.88
Cl       1.27       6.88       1.95
Cl       6.72       6.87      11.80
F       6.25       6.88       6.87
F       1.74       6.87       6.88
F       7.98       8.08       8.09
F       7.98       5.67       5.67
F       7.99       8.08       5.67
F      -0.01       5.67       8.09
