56

Zn       4.81       6.99       6.99
Si       8.68       6.99       6.99
H       2.75       6.99       4.72
H       2.61       6.99       2.31
H       6.94       6.99       2.23
H       6.90       6.99       4.66
H       2.68       6.99      11.75
H       7.01       6.99      11.67
H       6.88       6.99       9.26
H       2.73       6.99       9.32
H       2.75       4.72       6.99
H       2.61       2.31       6.99
H       6.94       2.23       6.99
H       6.90       4.66       6.99
H       2.68      11.75       6.99
H       7.01      11.67       6.99
H       6.88       9.26       6.99
H       2.73       9.32       6.99
C       3.67       6.99       4.14
C       3.60       6.99       2.75
C       4.78       6.99       1.97
C       5.97       6.99       2.72
C       5.96       6.99       4.10
C       4.84       6.99       0.48
C       4.79       6.99      13.50
C       3.65       6.99      11.26
C       4.85       6.99      12.01
C       6.03       6.99      11.23
C       5.96       6.99       9.84
C       3.67       6.99       9.87
C       3.67       4.14       6.99
C       3.60       2.75       6.99
C       4.78       1.97       6.99
C       5.97       2.72       6.99
C       5.96       4.11       6.99
C       4.84       0.48       6.99
C       4.79      13.50       6.99
C       3.65      11.26       6.99
C       4.85      12.01       6.99
C       6.03      11.23       6.99
C       5.96       9.84       6.99
C       3.67       9.87       6.99
N       4.82       6.99       4.82
N       4.81       6.99       9.16
N       4.82       4.82       6.99
N       4.81       9.16       6.99
Cl       7.43       6.99      13.88
Cl       2.19       6.99       0.10
Cl       7.43      13.88       6.99
Cl       2.19       0.10       6.99
F       2.71       7.00       6.99
F       6.92       6.98       6.98
F       8.68       8.19       5.79
F       8.68       5.79       8.19
F       0.96       5.79       5.79
F       8.67       8.19       8.19
