172

Zn       4.71       6.79      11.47
Zn       1.55       7.72       9.90
H       5.93       4.27      11.75
H       0.84       1.53       5.68
H       0.12       3.09       6.25
H      -0.93       1.68       5.92
H       5.17       2.45       7.87
H       6.96       2.50       7.68
H       6.10       3.84       8.50
H       2.87      10.99       7.96
H       3.46      12.51       7.19
H       2.47      11.35       6.25
H       9.67       8.68       6.07
H       0.31       9.57       7.92
H      -3.17       3.05      11.14
H       8.13       8.54       9.88
H      -1.78       6.39      11.37
H      -1.21      10.66       6.69
H       7.39       2.49      11.82
H      12.68       8.90       3.03
H      12.61       7.48       4.13
H      -2.50       9.14       4.80
H       1.17       2.10      18.70
H       0.25       3.35      19.58
H       8.62       7.92       8.06
H      -0.43       1.69      19.44
H       4.29       6.87       2.74
H       6.78       5.90      17.57
H       2.18       7.82       4.91
H       5.89       6.46      14.63
H       4.26       7.61       8.79
H       1.46       6.14      14.56
H       6.95       6.13       8.29
H       0.57       5.57      17.53
H       8.70       2.09       9.43
H      -2.36       4.92      10.35
H       8.47       0.71       8.30
H       9.91       0.77       9.38
H      -2.21      13.96       7.71
H      -1.10      12.54       7.75
H      -1.85      13.06       6.19
H       4.33       2.86      13.17
H       2.87       2.01      12.57
H       2.99       3.80      12.46
H       0.52      12.60      11.23
H       0.79      10.93      11.88
H      11.42       8.93       0.16
H      -0.36      11.20      10.52
H       0.57       4.86       9.10
H       6.37      11.15      12.73
H       6.65       2.31       0.87
H       7.71      13.27      10.13
H       7.77      11.59      10.79
H       8.60      12.93      11.66
C       3.37       9.38      11.16
C       2.45       5.92      16.16
C       6.18       6.42       6.60
C       2.46       5.66      17.53
C       6.22       6.33       5.21
C       3.68       5.59      18.22
C       3.68      10.83      11.09
C       2.43       3.54       9.74
C       5.37      12.59      11.25
C       1.29       1.89       8.31
C       4.92      11.30      11.57
C       2.59       4.94      10.17
C       1.35       3.17       8.87
C       2.86      11.71      10.36
C       3.39       2.56      10.06
C       2.71       7.90       7.10
C       3.62       6.37      14.02
C       3.30      13.01       9.99
C       3.47       1.34       9.33
C       4.58      13.47      10.48
C       2.35       0.97       8.50
C       2.44      13.93       9.28
C       5.10       6.69       4.44
C       4.56       0.42       9.51
C       5.90       0.84       9.78
C       1.43      13.61       8.30
C       6.87      -0.08      10.17
C       2.39      -0.33       7.90
C      -1.82       9.23       7.79
C       8.05       4.22      11.38
C      -0.56       9.03       8.31
C       6.81       4.82      11.41
C      -1.32       7.46       9.84
C       4.89       5.80      17.55
C       7.60       6.81      10.50
C      -2.62       7.47       9.29
C       8.88       6.23      10.26
C      -2.90       8.42       8.26
C       9.16       4.95      10.84
C       3.09       3.96      19.92
C       8.44       6.84       4.38
C      -3.65       6.58       9.77
C       9.90       6.94       9.52
C       9.63       7.86       8.47
C       3.94       7.17       5.06
C      -3.38       5.33      10.38
C      10.64       8.47       7.75
C      10.51       4.49      10.82
C       4.05       6.15      20.57
C       7.27       4.70       3.77
C      10.18       6.98       0.49
C       7.96       4.71       2.47
C       9.33       5.89       0.82
C       8.84       5.77       2.15
C       2.54       3.81      21.28
C       4.88       6.10      16.19
C       9.25       6.71       3.14
C      10.66       7.84       1.49
C       7.61       3.77       1.49
C      10.27       7.64       2.85
C       8.05       3.94       0.14
C       7.73      12.66      11.05
C       0.05       1.99       6.29
C       6.11       2.76       8.34
C       2.63      11.79       7.24
C      12.22       8.49       3.93
C       3.91       7.34       6.46
C       0.49       2.28      19.54
C       8.84       1.01       9.29
C      -1.44      13.40       7.15
C       3.55       2.86      12.40
C       0.58      11.53      10.98
C       3.66       6.14      15.47
C       5.05       6.96       7.22
N       3.62       5.25      19.61
N       7.39       5.93       4.49
N      -0.32       8.18       9.33
N       6.60       6.11      11.04
O       4.38       8.63      10.99
O       8.54       7.75       5.22
O       4.61       7.22      20.24
O       6.56       3.81       4.22
O      11.41       8.90       1.19
O       6.79       2.74       1.74
O       6.57      12.94      11.86
O       0.13       1.53       7.65
O       6.30       2.15       9.64
O       1.40      12.44       7.59
O      10.43       9.10       6.58
O       1.59       5.75       9.96
O      10.78       3.22      11.24
O       7.33       8.11      10.27
O      -0.98       6.78      10.97
O      -2.04      10.18       6.84
O       8.24       2.96      11.85
O      10.77       8.43       3.82
O       1.10       1.85      20.78
O       5.16       6.59       3.07
O       6.08       5.69      18.22
O       2.89       7.50       4.26
O       2.16       8.97      11.27
O       6.10       6.30      15.60
O       5.11       7.12       8.56
O       1.23       5.95      15.54
O       7.24       6.00       7.37
O       1.28       5.46      18.20
O       8.19       0.26      10.33
O      -0.33      14.26       6.84
O       4.23       2.71      11.14
O       1.60      11.31       9.98
O       0.33       4.02       8.61
O       3.71       5.32      10.63
O       5.67      10.54      12.40
O       2.80       8.12       8.40
O       2.53       6.37      13.39
O       1.69       8.17       6.42
O       4.78       6.53      13.42
O       3.11       3.08      19.07
