116

Al       4.15      28.91      25.04
Al       4.15      14.45      16.69
H       2.02      16.27      10.36
H       2.12      11.95      10.60
H       2.12      16.96       6.09
H       2.02      12.63       6.33
H       2.08      12.92       8.44
H       2.08      15.99       8.25
H       2.03      19.02      21.43
H       2.12      20.98      17.57
H       2.12      22.38      24.15
H       2.03      24.34      20.30
H       2.08      22.36      19.48
H       2.08      21.00      22.24
H       2.03      36.97      18.28
H       2.12      39.33      21.90
H       2.12      32.93      19.82
H       2.03      35.30      23.45
H       2.08      36.99      22.15
H       2.08      35.28      19.58
C       2.07      30.63      23.92
C       2.07      14.56       2.05
C       2.07      27.08      24.11
C       2.07      14.35      14.64
C       2.07      16.28      17.62
C       2.07      12.74      17.81
C       2.07      14.26      13.13
C       2.09      15.40      12.29
C       2.06      15.33      10.91
C       2.07      14.10      10.25
C       2.09      12.94      11.05
C       2.05      13.03      12.43
C       2.08      13.95       8.80
C       2.08      14.96       7.89
C       2.09      15.96       5.64
C       2.07      14.81       6.44
C       2.06      13.58       5.78
C       2.09      13.51       4.40
C       2.07      14.65       3.56
C       2.05      15.88       4.26
C       2.07      17.64      18.30
C       2.09      17.79      19.71
C       2.06      19.02      20.34
C       2.07      20.21      19.60
C       2.09      20.10      18.20
C       2.05      18.85      17.59
C       2.08      21.54      20.20
C       2.08      21.82      21.52
C       2.09      23.27      23.52
C       2.07      23.15      22.12
C       2.06      24.34      21.38
C       2.09      25.57      22.02
C       2.07      25.72      23.42
C       2.05      24.51      24.14
C       2.07      11.47      18.64
C       2.09      39.08      18.07
C       2.06      37.92      18.82
C       2.07      37.96      20.22
C       2.09      39.23      20.82
C       2.06      40.39      20.05
C       2.08      36.78      21.07
C       2.08      35.49      20.65
C       2.09      33.04      20.91
C       2.07      34.31      21.50
C       2.06      34.35      22.90
C       2.09      33.19      23.66
C       2.07      31.90      23.08
C       2.05      31.88      21.67
N       2.01      11.70      13.11
N       2.13      16.80      12.82
N       2.13      12.11       3.87
N       2.01      17.21       3.58
N       2.01      18.93      16.10
N       2.13      16.64      20.66
N       2.13      26.72      21.07
N       2.01       9.98       0.59
N       2.01      12.73      20.86
N       2.13       9.93      16.60
N       2.13      18.98       0.09
N       2.01      30.63      20.86
O       1.08      27.35      24.84
O       1.08      29.86      23.78
O       1.08      15.06       1.45
O       3.07      27.83      23.89
O       3.07      14.00       1.50
O       3.07      30.44      24.68
O       1.08      13.51      17.94
O       1.08      13.85      15.24
O       1.08      16.01      16.89
O       3.07      12.93      17.05
O       3.07      15.53      17.84
O       3.07      14.91      15.19
O       1.15      11.52      13.97
O       2.82      10.86      12.69
O       2.99      17.07      13.65
O       1.33      17.59      12.30
O       2.99      11.84       3.04
O       1.33      11.32       4.39
O       1.15      17.39       2.72
O       2.82      18.04       4.00
O       1.15      18.28      15.51
O       2.82      19.72      15.58
O       2.99      15.78      20.48
O       1.33      16.69      21.60
O       2.99      27.59      21.25
O       1.33      26.67      20.13
O       1.15      10.63       1.18
O       2.82       9.19       1.11
O       1.15      13.56      20.59
O       2.82      12.78      21.80
O       2.99      10.51      15.94
O       1.33      37.99      16.17
O       2.99      18.39       0.75
O       1.33      19.82       0.52
O       1.15      29.80      21.13
O       2.82      30.58      19.92
