120

Zn       6.72       6.05      11.74
Zn       3.80       6.20      11.75
H       2.78       3.85       1.39
H       2.65       5.20      22.37
H       3.35       7.12       7.69
H       7.23       5.31       7.37
H       7.07       5.46       4.87
H       4.47       9.16      17.88
H       4.66       8.58      15.46
H       5.64       5.15      18.90
H       3.78      10.60      10.60
H       6.95       8.89      13.80
H       8.81       9.85      15.07
H       7.41       2.78      13.38
H       2.79       7.72       9.83
H       1.57       9.22       8.30
H       8.99       9.41       8.42
H       7.72       8.04      10.06
H       8.88       4.96      13.29
H       3.99       3.24      16.93
H       4.13       3.68      15.22
H       4.98       2.25      15.83
H       6.58       4.15      15.52
H       6.47       3.67      17.22
H       8.63       3.43      15.51
H       8.43       2.21      16.77
H       0.15       2.81      16.38
H      10.37      11.50      15.38
H       9.93       1.76      14.11
H       2.09       6.39      15.02
H       0.48       5.68      15.33
H       1.95       4.84      15.86
H       1.07       3.75      13.78
H       2.65       4.48      13.47
H       3.22       9.52       6.21
H       4.03       9.52       4.64
H       2.26       9.74       4.73
H       2.77       7.39       4.03
H       2.01       7.39       5.61
C       5.14       8.72      11.87
C       5.34       6.09       9.16
C       5.40       3.53      11.86
C       5.36       6.28      14.35
C       3.99       6.68      20.64
C       5.77       8.44      20.48
C       5.69       8.61      21.96
C       4.91       7.72      22.74
C       4.06       6.78      22.12
C       6.46       9.57      22.61
C       6.48       8.23       0.51
C       5.74       7.36       1.29
C       4.92       6.40       0.65
C       4.16       5.48       1.41
C       3.34       4.55       0.77
C       3.30       5.91      22.89
C       5.75       7.46       2.78
C       4.26       5.45       2.88
C       4.09       6.94       5.68
C       4.18       6.79       7.06
C       5.29       6.21       7.67
C       6.36       5.75       6.89
C       6.27       5.84       5.50
C       5.15       6.43       4.92
C       4.77       8.16      17.57
C       4.89       7.83      16.22
C       5.29       6.55      15.83
C       5.57       5.56      16.78
C       5.44       5.90      18.13
C       5.05       7.18      18.51
C       7.17       9.95      13.70
C       8.22      10.49      14.41
C       7.98       0.91      14.27
C       7.17       1.73      13.49
C       6.07       1.21      12.75
C       6.40      10.75      12.81
C       5.36      10.20      12.00
C       4.58      11.01      11.21
C       4.26       1.44      11.15
C       5.26       2.04      11.90
C       1.71       7.79       9.88
C       1.02       8.63       9.02
C       9.51       8.73       9.09
C       8.80       7.98       9.99
C       9.48       7.10      10.86
C       1.02       7.02      10.83
C       0.98       5.52      12.62
C       9.46       5.57      12.59
C       5.91       4.14      16.40
C       4.68       3.28      16.08
C       9.25       1.41      14.91
C       9.08       2.53      15.95
C       1.61       4.71      13.71
C       1.52       5.45      15.06
C       2.92       7.68       5.07
C       3.12       9.20       5.16
N       4.92       7.46      19.92
N       5.07       6.44       3.47
N       1.69       6.22      11.73
N       8.78       6.32      11.74
N       7.22      10.60      21.86
N       3.48       2.22      10.17
N       7.42       9.22       1.11
O       6.20       8.02      11.80
O       3.95       8.30      11.78
O       6.49       5.97       9.70
O       4.23       6.16       9.78
O       6.56       4.03      11.76
O       4.30       4.18      11.97
O       6.49       6.00      13.83
O       4.26       6.41      13.74
O       3.19       5.95      20.07
O       6.56       9.07      19.80
O       6.32       8.37       3.38
O       3.66       4.63       3.57
O       6.56      11.53      21.40
O       8.44      10.46      21.84
O       4.10       2.92       9.37
O       2.25       2.05      10.18
O       8.50       8.78       1.50
O       7.05      10.40       1.10
