121

Zn       6.05       7.98      11.83
Zn       8.83       7.94      11.90
H       6.37      11.24       1.32
H       5.99      14.72      10.45
H       9.32       1.22      12.87
H       5.56       0.97      10.74
H       5.47      15.03      12.85
H       6.68      14.70      14.10
H       1.22      10.11      11.51
H      13.54      10.06      11.59
H      13.58       6.57      10.21
H       1.26       6.60      10.16
H      13.54       8.28       9.77
H       9.75       8.14       7.59
H       1.22       8.31       9.70
H      13.66       7.11      13.92
H       1.35       7.19      13.87
H      13.67       5.88      12.66
H       1.35       5.94      12.62
H      13.60       9.59      13.29
H       1.29       9.65      13.22
H       8.00       4.57      22.46
H       8.23       4.79       1.27
H       9.39       7.98      18.73
H       5.46       8.02       7.64
H       9.50       8.00      16.22
H       5.23       7.64      16.03
H       5.11       7.61      18.54
H       9.73       8.16       5.08
H       5.00       1.06      14.60
H       3.36       1.93      13.29
H       3.94       0.60      12.25
H       4.49       2.29      11.98
H       8.09       0.16      14.64
H       8.59       2.61      14.33
H       5.43       8.03       5.13
H       8.24       2.12      16.02
H       6.98       2.87      15.02
H       5.64      12.01      23.20
H       4.50      10.41      21.12
H       5.61      11.62      20.43
H       4.24      12.14      21.47
H       7.10       1.19       9.93
H       9.19       1.00      11.13
H       7.66      14.93       9.91
H       9.56      14.75      11.56
H       9.23      14.94      13.27
C       7.42      10.57      11.97
C       7.37       6.56      20.86
C       8.48       7.90      18.13
C       7.43       7.86      14.48
C       8.54       7.91      16.74
C       7.37       7.83      15.98
C       6.13       7.72      16.63
C       6.07       7.70      18.02
C       7.24       7.80      18.77
C       8.79       8.14       5.64
C       8.81       8.12       7.04
C       6.60      10.34       0.73
C       7.61       8.08       7.75
C       6.39       8.05       7.06
C       6.37       8.06       5.67
C       7.28       5.36      11.81
C       7.57       8.10       4.97
C       6.94      15.21      10.69
C       8.88      15.23      12.27
C       8.73       0.72      12.09
C       6.62       0.70      10.78
C       7.27       3.92      11.87
C       6.40      10.17      23.04
C       7.45      14.68      12.05
C       7.28       1.26      12.08
C       6.56       0.71      13.39
C       6.51      15.23      13.15
C       7.26       2.71      12.00
C       7.45      13.23      12.05
C       7.61       8.05       9.26
C       7.45      12.01      12.02
C      13.97       9.33      12.29
C       0.87       9.37      12.24
C       6.80       9.02      22.30
C      13.96       7.56      10.48
C       0.86       7.58      10.44
C      13.48       7.91      11.91
C       1.40       7.97      11.84
C       0.94       6.92      12.88
C      14.04       6.88      12.92
C       2.85       8.00      11.80
C      12.03       7.89      11.95
C       7.82       6.87       2.88
C       7.16       9.29       2.89
C       7.17       7.84      23.01
C       7.03       9.23       1.41
C       7.29       8.02       0.71
C       7.68       6.85       1.40
C       4.24       1.55      12.75
C       7.82       2.18      15.00
C       5.00      11.37      21.31
C       7.45       6.63      22.33
C       7.82       5.48      23.03
C       7.94       5.67       0.71
C       7.02       9.05      20.85
N       7.53       8.09       3.53
N       7.17       7.79      20.21
N       4.01       8.04      11.77
N      10.87       7.88      11.97
N       5.32       1.43      13.71
N       7.35       0.85      14.62
N       5.80      11.28      22.52
O       6.27      10.02      11.96
O       6.94      10.32       3.53
O       7.12      10.08      20.18
O       7.49       5.51      20.22
O       8.55       9.98      11.94
O       6.32       7.85      13.86
O       8.58       7.91      13.95
O       6.15       5.94      11.72
O       8.43       5.92      11.86
O       6.47       8.09       9.82
O       8.74       7.99       9.84
O       8.16       5.88       3.53
