216

Zn       7.56       9.04      15.54
Zn      27.04      10.85      18.20
Zn       9.01      11.92      15.67
Zn      25.49      11.79      15.58
Zn      18.35       7.32       8.83
Zn      16.88       4.43       8.66
Zn      18.60       5.49       6.19
Zn      20.07       4.61       8.86
Zn      16.14      16.39      22.41
Zn      17.70      15.49      25.05
Zn      15.94      18.19      25.05
Zn      14.48      15.31      24.90
Zn      17.65       5.10      31.95
Zn      14.47       4.91      31.75
Zn      24.82      19.96      31.78
Zn      18.39      17.73       1.97
H      23.09       5.86      11.42
H      20.80       9.51      11.38
H       5.08       6.93      12.98
H      11.44      13.43      22.74
H      13.76      14.87      19.41
H       9.80      12.41      21.14
H      12.19       1.51       4.97
H      14.45       2.92       1.58
H      13.88       2.56       6.50
H      22.36      17.76      29.19
H      11.46       3.69      29.21
H      20.67      16.76      27.62
H      23.07      11.07      13.59
H      11.49      13.44      17.10
H      16.86       4.42       3.68
H      17.70      20.09      27.01
C       7.46       7.90      18.25
C       9.87      12.44      18.49
C      10.15       9.59      14.25
C      27.06      13.92      14.25
C      24.68       9.39      13.99
C      24.41      12.23      18.27
C      15.75       6.76      10.11
C      16.07       3.92       5.85
C      18.47       8.45       6.10
C      21.18       4.11       6.16
C      20.86       7.00      10.38
C      18.49       2.45      10.12
C      18.77      15.04      22.35
C      18.48      17.90      26.62
C      16.08      19.35      22.36
C      13.36      17.66      26.35
C      13.68      14.82      22.10
C      16.11      13.34      26.35
C      16.04       7.08      30.49
C      22.33      20.28      30.22
C      27.42      20.50      30.49
C      18.48      14.76       2.01
C      12.23       1.54       2.26
C       7.12       1.34       1.97
C      23.70       8.80      13.06
C      21.85       7.62      11.31
C      22.57       9.55      12.60
C      22.96       6.88      11.76
C      21.66       8.94      11.73
C      23.87       7.47      12.62
C      10.86      13.06      19.39
C      12.69      14.21      21.16
C      11.99      13.76      18.89
C      11.57      13.51      21.67
C      12.89      14.33      19.79
C      10.67      12.95      20.78
C      12.43       9.69      13.01
C      13.48       6.66      11.35
C      11.26       9.07      13.44
C      14.64       7.29      10.92
C      12.67       7.54      12.11
C      13.24       8.82      12.25
C      23.18      12.78      20.48
C      20.01      14.48      20.14
C      23.33      12.77      19.09
C      19.86      14.49      21.53
C      21.22      13.85      19.76
C      21.97      13.41      20.86
C       7.38       6.55      20.46
C       7.50       2.95      20.14
C       7.45       6.68      19.08
C       7.43       2.82      21.53
C       7.48       4.31      19.76
C       7.40       5.19      20.85
C      25.97      15.84      12.89
C      28.24      18.26      11.47
C      27.05      15.14      13.43
C      27.16      18.96      10.92
C      27.80      17.12      12.18
C      26.41      16.97      12.17
C      15.11       3.32       4.91
C      13.23       2.15       3.19
C      15.27       3.42       3.50
C      13.06       2.05       4.58
C      14.32       2.83       2.66
C      13.99       2.63       5.42
C      18.53       9.80       3.89
C      18.42      13.40       4.23
C      18.47       9.66       5.28
C      18.48      13.54       2.84
C      18.44      12.04       4.61
C      18.51      11.17       3.51
C       3.80       2.91       5.78
C       4.85       2.53       2.35
C       2.64       3.55       5.37
C       6.02       1.89       2.77
C       4.04       2.90       3.45
C       4.61       2.54       4.68
C      19.45      18.53      27.54
C      21.33      19.66      29.28
C      19.29      19.86      27.99
C      21.50      18.33      28.84
C      20.24      20.41      28.86
C      20.57      17.78      27.98
C      17.21      11.42      27.71
C      14.94       9.00      29.14
C      16.13      12.12      27.16
C      16.02       8.30      29.68
C      15.38      10.14      28.41
C      16.77      10.28      28.43
C      30.74      17.56      27.60
C      29.70      20.59      29.25
C      31.91      18.18      27.16
C      28.53      19.97      29.68
C      30.50      19.72      28.49
C      29.94      18.44      28.36
S      11.15       7.41      12.92
S      14.75       8.95      11.45
S      21.98      13.52      18.26
S      21.20      13.75      22.36
S       7.53       5.15      18.25
S       7.35       4.36      22.35
S      28.59      15.88      13.07
S      25.62      18.22      11.28
S      18.39      11.20       6.11
S      18.56      12.01       2.01
S       2.53       3.70       3.63
S       6.12       1.75       4.50
S      14.59      11.38      27.53
S      17.56       9.04      29.31
S      32.02      19.85      27.68
S      28.42      18.31      29.16
Br      12.97      11.46      13.35
Br      12.95       4.89      11.03
Br      24.36      12.09      21.76
Br      18.82      15.17      18.86
Br       7.27       7.92      21.74
Br      16.26      19.33      18.87
Br      24.15      15.41      13.02
Br      30.06      18.68      11.32
Br      18.62       8.44       2.61
Br      18.32      14.76       5.51
Br       4.33       2.54       7.55
Br       4.33       2.91       0.59
Br      19.03      11.85      27.57
Br      13.12       8.57      29.28
Br      30.21      15.79      27.27
Br      21.58       4.62      29.57
O       7.45      10.88      16.24
O       7.52       7.71      16.98
O       8.89      11.81      19.00
O      10.23      10.80      14.63
O       7.41       9.02      18.86
O       9.20       8.77      14.49
O      10.07      12.57      17.21
O       8.57      13.52      14.62
O      24.47      10.61      14.37
O      25.95      13.37      14.52
O      25.67       8.68      14.36
O      25.41      11.71      18.87
O      24.26      12.35      17.00
O      18.46       5.47       8.14
O      16.70       7.59       9.86
O      15.87       3.79       7.10
O      18.55       7.33       5.50
O      15.67       5.55       9.73
O      18.39       8.64       7.37
O      17.09       4.55       5.33
O      20.22       4.63       5.49
O      21.09       5.79      10.04
O      21.27       4.03       7.43
O      19.87       7.71      10.01
O      17.33       2.84       9.74
O      19.60       3.00       9.88
O      16.07      16.35      24.37
O      17.79      15.57      21.75
O      18.69      16.70      26.24
O      16.01      19.54      23.63
O      18.92      14.92      23.62
O      16.12      18.23      21.75
O      17.47      18.62      26.24
O      14.31      18.49      26.11
O      13.46      14.68      23.35
O      13.29      16.45      25.96
O      14.66      15.45      21.57
O      17.23      13.89      26.08
O      14.95      13.74      25.98
O      18.50      17.73       0.00
O      17.20       6.68      30.86
O      22.11      21.48      30.57
O      26.47      19.67      30.74
O      14.92       6.52      30.74
O      18.84       3.97      30.87
O      23.31      19.55      30.58
O      18.55      14.56       0.75
O      11.24       0.93       2.80
O      18.42      15.88       2.62
O      12.44       1.67       1.01
O       7.03       1.42       0.71
O       8.09       0.82       2.64
O      22.33      10.82      12.97
O      12.24      13.91      17.57
O      16.30       4.07       2.93
O      18.26      20.65      27.62
