168

Zn       9.71       8.96      16.61
Zn       6.89       8.65      16.56
Zn       7.02       8.95      31.80
Zn       9.84       8.64      31.84
H       4.86      10.19      17.78
H       2.36      10.42      17.92
H       2.08       6.99      15.28
H      14.50      10.56      18.08
H      11.78       7.46      15.40
H      14.28       7.26      15.27
H      10.03      12.86      16.45
H      10.29      15.34      16.37
H       5.99      15.72      16.47
H      10.69       1.97      16.64
H       6.55       4.67      16.42
H       6.39       2.18      16.32
H       6.11       8.85      20.88
H       4.93       8.84      23.07
H      10.36       8.66      20.71
H      10.62       8.83      27.53
H      11.79       8.83      25.34
H       6.36       8.64      27.70
H       6.20       8.66       2.95
H       6.18       8.59       5.45
H      10.38       9.59       5.46
H       6.28       9.53       9.86
H      10.46       8.57      12.34
H      10.48       8.55       9.85
H      11.88      10.17      30.62
H      14.37      10.39      30.48
H      14.59       7.10       0.01
H       2.23      10.53      30.32
H       4.96       7.45      33.01
H       2.40       7.38       0.02
H       6.71      12.85      31.93
H       6.44      15.33      32.01
H      10.74      15.71      31.87
H       6.02       1.97      31.74
H      10.17       4.65      31.97
H      10.32       2.16      32.05
H       5.33      10.17      26.92
H      11.40      10.18      21.50
C       7.91      11.38      16.56
C       8.22       8.78      19.17
C       8.61       6.24      16.58
C       8.44       8.91      14.01
C       8.83      11.37      31.83
C       8.51       8.76      29.23
C       8.11       6.22      31.83
C       8.22       9.03       1.30
C       4.19       9.50      17.26
C       2.81       9.63      17.33
C       2.01       8.71      16.61
C       2.65       7.72      15.85
C       4.04       7.67      15.85
C       0.60       8.79      16.63
C      16.01       8.84      16.64
C      14.60       8.91      16.66
C      13.94       9.86      17.46
C      12.55       9.89      17.44
C      12.43       8.13      15.95
C      13.81       8.02      15.89
C       7.90      12.88      16.50
C       9.16      13.51      16.45
C       9.30      14.88      16.40
C       8.16      15.71      16.42
C       6.89      15.10      16.46
C       6.76      13.71      16.50
C       8.30      17.12      16.41
C       8.44       0.48      16.43
C       8.53       1.90      16.46
C       9.77       2.55      16.57
C       9.85       3.94      16.61
C       8.68       4.73      16.55
C       7.45       4.06      16.45
C       7.36       2.68      16.40
C       7.06       8.84      21.41
C       7.09       8.84      22.81
C       5.89       8.84      23.58
C       9.48       8.77      21.34
C       9.57       8.85      22.74
C      10.83       8.87      23.46
C       9.67       8.82      27.00
C       9.63       8.83      25.60
C      10.83       8.83      24.83
C       7.25       8.76      27.07
C       7.16       8.84      25.68
C       5.90       8.87      24.96
C       8.24       8.80      20.68
C       8.35       8.85      23.49
C       8.48       8.78      27.73
C       8.37       8.85      24.92
C       8.29       9.11       2.79
C       7.11       8.85       3.52
C       7.09       8.81       4.91
C       8.28       9.06       5.63
C       9.46       9.36       4.91
C       9.46       9.38       3.52
C       8.31       9.03       7.04
C       8.35       9.02       8.26
C       8.37       9.02       9.68
C       7.20       9.30      10.40
C       7.20       9.29      11.79
C       8.37       9.01      12.51
C       9.55       8.76      11.78
C       9.56       8.76      10.39
C      12.54       9.48      31.15
C      13.92       9.60      31.08
C      14.72       8.69      31.79
C      14.08       7.69      32.55
C      12.69       7.65      32.56
C      16.13       8.76      31.76
C       0.72       8.81      31.75
C       2.14       8.88      31.73
C       2.79       9.84      30.94
C       4.18       9.88      30.96
C       4.30       8.12      32.45
C       2.92       8.00      32.50
C       8.84      12.87      31.88
C       7.58      13.50      31.93
C       7.43      14.87      31.97
C       8.58      15.70      31.94
C       9.85      15.09      31.89
C       9.98      13.70      31.86
C       8.44      17.11      31.95
C       8.27       0.47      31.94
C       8.18       1.89      31.91
C       6.94       2.54      31.81
C       6.88       3.94      31.78
C       8.05       4.72      31.85
C       9.27       4.04      31.94
C       9.36       2.66      31.98
C       4.55       8.96      25.61
C      12.17       8.96      22.80
N       4.81       8.54      16.53
N      11.80       9.06      16.71
N      11.93       8.52      31.87
N       4.93       9.05      31.69
Cl       4.83       6.47      14.91
Cl      11.74      11.06      18.41
Cl       5.14      13.10      16.58
Cl      11.43       4.62      16.79
Cl      10.95       9.83       2.76
Cl       5.71       9.72      12.56
Cl      11.84       6.58       0.38
Cl       4.98      11.05      30.00
Cl      11.60      13.09      31.78
Cl       5.29       4.62      31.61
O       9.03      10.86      16.86
O       6.84      10.73      16.31
O       7.10       8.97      18.61
O       9.34       8.59      18.60
O       7.48       6.72      16.91
O       9.64       6.91      16.26
O       9.55       9.24      14.56
O       7.41       8.48      14.60
O       7.70      10.85      31.54
O       9.89      10.72      32.08
O       9.63       8.95      29.80
O       7.39       8.57      29.81
O       9.25       6.71      31.51
O       7.09       6.90      32.15
O       7.12       9.37       0.75
O       9.26       8.61       0.70
O       4.45       9.77      26.71
O       3.56       8.41      25.19
O      12.27       9.79      21.71
O      13.17       8.41      23.22
