436

Zn      12.21       3.64       6.47
Zn       5.97       3.63      20.28
Zn      18.10      14.41       6.66
Zn      14.14      14.41      20.09
Fe      16.45      13.07      26.35
Fe      15.78      13.08       0.40
Fe      14.35       4.96      12.91
Fe      17.88       4.96      13.83
H      19.28      14.33       4.49
H      12.96      14.32      22.25
H      14.80      11.19      23.90
H      17.43      11.20       2.85
H      17.74      11.93      23.81
H      14.49      11.94       2.93
H      15.45      12.39      21.82
H      16.78      12.40       4.92
H      17.11      12.98      21.60
H      15.13      12.99       5.14
H      16.76      10.84      20.36
H      15.47      10.85       6.39
H      18.01      10.68      21.60
H      14.22      10.69       5.15
H      16.54       8.70      21.68
H      15.69       8.71       5.07
H      15.11       9.72      21.80
H      17.13       9.73       4.95
H      15.68       8.84      24.02
H      16.55       8.85       2.72
H      17.34       9.47      23.91
H      14.89       9.48       2.84
H      16.06      14.53      22.60
H      16.17      14.54       4.14
H      15.47      16.64      22.44
H      16.77      16.65       4.30
H       8.15       0.31      25.83
H      10.02       0.31       0.91
H       7.54       3.62      22.92
H      10.64       3.63       3.83
H       8.43       1.88      24.44
H       9.75       1.89       2.30
H      14.11      17.90      21.57
H      18.13      17.91       5.17
H       6.34       0.81      20.13
H      11.84       0.81       6.61
H       3.41       0.39       1.15
H      14.77       0.39      25.59
H       5.16       0.66       0.96
H      13.01       0.66      25.78
H       4.50       0.16       2.52
H      13.67       0.15      24.22
H       9.54      17.03       1.47
H      22.70      17.03      25.27
H      10.61      16.83       2.88
H      21.63      16.82      23.86
H      10.63      15.63       1.58
H      21.61      15.62      25.17
H      13.06      17.21       2.71
H      19.18      17.20      24.03
H      13.81      17.74       1.20
H      18.42      17.74      25.54
H      13.27      16.06       1.37
H      18.96      16.06      25.37
H      16.04       9.13      26.08
H      16.19       9.14       0.67
H      12.22       8.17       1.35
H      20.01       8.16      25.40
H      11.66      10.29       5.04
H      20.58      10.29      21.71
H      10.98       6.24       6.85
H       7.20       6.24      19.90
H      10.78       8.42       5.66
H       7.40       8.42      21.09
H      13.50       6.86       2.68
H      18.73       6.86      24.07
H      13.55       4.72       3.99
H      18.68       4.72      22.75
H      12.15      12.21       5.95
H      20.08      12.21      20.80
H      10.40      11.85       5.91
H       7.78      11.85      20.84
H      10.96      13.52       6.09
H      21.27      13.52      20.65
H       8.99      12.59       3.94
H       9.20      12.59      22.80
H       9.70      13.53       2.60
H      22.53      13.52      24.14
H       9.55      14.25       4.22
H      22.68      14.25      22.52
H      11.99      14.80       4.30
H      20.25      14.79      22.45
H      12.29      14.10       2.69
H      19.95      14.10      24.05
H      13.22      13.55       4.10
H      19.01      13.54      22.65
H      12.97       6.29      10.07
H       5.22       6.30      16.66
H      15.86       6.80      10.87
H      16.37       6.80      15.87
H      15.24       9.20      10.76
H      17.00       9.21      15.98
H      13.58       8.77      10.29
H      18.65       8.77      16.45
H      14.91       9.40       8.29
H      17.33       9.41      18.45
H      16.16       8.23       8.71
H      16.08       8.24      18.03
H      14.71       7.28       6.94
H      17.53       7.29      19.80
H      13.28       7.56       7.92
H      18.96       7.56      18.82
H      13.98       5.19       8.07
H      18.27       5.20      18.67
H      15.59       5.66       8.63
H      16.65       5.66      18.12
H      14.61       8.98      12.73
H      17.63       8.98      14.01
H      13.29       7.86      18.30
H       4.89       7.86       8.44
H      14.48       9.98      14.76
H      17.76       9.98      11.98
H      12.90      11.87      20.27
H      19.35      11.87       6.47
H      12.60       9.75      18.98
H       5.59       9.75       7.76
H      15.57      11.23      16.20
H      16.67      11.23      10.54
H      15.71      13.29      17.61
H      16.53      13.29       9.13
H      14.87       4.60      17.49
H       3.31       4.59       9.26
H      14.09       4.05      15.99
H       4.10       4.05      10.76
H      13.59       3.37      17.56
H       4.59       3.37       9.19
H      11.55       4.69      15.59
H       6.64       4.70      11.15
H      10.71       5.66      16.82
H       7.47       5.67       9.92
H      11.17       3.98      17.18
H       7.02       3.99       9.57
H      11.89       6.33      18.98
H       6.29       6.33       7.76
H      13.60       5.91      19.23
H       4.57       5.91       7.52
H      12.37       4.64      19.21
H       5.81       4.64       7.54
H      13.95       3.57       9.15
H       4.23       3.57      17.59
H      20.33      17.70      12.26
H      11.92      17.71      14.49
H      13.69       1.41       8.92
H       4.50       1.42      17.83
H      18.09      15.02       9.52
H      14.15      15.02      17.22
H      18.89      16.75      11.08
H      13.36      16.75      15.66
H      21.07      18.51       7.78
H      11.18      18.51      18.97
H      20.18      16.69       6.35
H      12.06      16.68      20.39
H      15.83       0.46      14.51
H       2.36       0.46      12.24
H      14.97       0.88      16.00
H       3.22       0.87      10.74
H      15.12       2.09      14.71
H       3.06       2.08      12.04
H      12.47       1.01      16.08
H       5.72       1.01      10.66
H      11.50       0.82      14.60
H       6.69       0.82      12.14
H      12.47       2.29      14.84
H       5.71       2.29      11.90
H      20.66      17.82      15.71
H      11.60      17.82      11.04
H      21.40      17.40      14.16
H      10.86      17.40      12.59
H      19.62      17.54      14.30
H      12.63      17.54      12.45
H      16.11       2.33       8.13
H      16.12       2.32      18.62
H       4.04       0.89       8.51
H      14.13       0.89      18.24
H      10.57      18.15       4.59
H      21.67      18.15      22.16
H       1.65       0.74       4.16
H      16.54       0.74      22.58
H      14.70      16.60       5.03
H      17.54      16.60      21.72
H      12.73      18.06       4.70
H      19.51      18.05      22.05
H      11.87      17.83       8.92
H      20.37      17.83      17.83
H      13.90      16.42       9.24
H      18.34      16.42      17.51
H       9.96       1.27      10.07
H       8.23       1.28      16.68
H       8.93       1.31      12.34
H       9.26       1.31      14.41
H       9.98       5.47      12.73
H       8.21       5.47      14.02
H      10.88       5.45      10.41
H       7.31       5.45      16.34
C      15.85      11.00      24.19
C      16.38      11.01       2.56
C      16.69      12.15      23.57
C      15.55      12.16       3.18
C      16.51      12.17      22.05
C      15.72      12.18       4.70
C      16.93      10.82      21.45
C      15.30      10.83       5.30
C      16.17       9.66      22.08
C      16.06       9.67       4.67
C      16.29       9.65      23.61
C      15.94       9.66       3.14
C      16.09      14.49      23.70
C      16.14      14.50       3.05
C      15.69      17.26      26.32
C      16.55      17.27       0.42
C      15.89      15.95      25.77
C      16.34      15.95       0.97
C      15.82      15.75      24.35
C      16.41      15.76       2.39
C      15.51      16.83      23.51
C      16.73      16.83       3.23
C      15.27      18.10      24.03
C      16.97      18.11       2.71
C      15.38      18.28      25.43
C      16.85      18.29       1.31
C       7.47       2.56      22.65
C      10.71       2.57       4.09
C       7.95       1.58      23.51
C      10.23       1.59       3.24
C       7.82       0.22      23.15
C      10.36       0.23       3.59
C      14.26      18.92      21.91
C      17.98      18.93       4.83
C       6.79       0.99      21.11
C      11.39       0.99       5.64
C      11.64      17.51       1.09
C      20.60      17.51      25.66
C       4.41       0.02       1.44
C      13.77       0.02      25.30
C      10.54      16.69       1.79
C      21.70      16.69      24.95
C      13.03      17.10       1.62
C      19.21      17.10      25.12
C      15.97      10.16      26.46
C      16.27      10.17       0.28
C      11.83      10.27       1.16
C      20.41      10.27      25.58
C      12.05       9.10       1.90
C      20.19       9.09      24.85
C      11.97       9.09       3.29
C      20.26       9.08      23.46
C      11.68      10.30       3.95
C      20.55      10.30      22.80
C      11.46      11.50       3.30
C      20.77      11.50      23.45
C      11.53      11.50       1.85
C      20.71      11.50      24.89
C      11.51       6.43       5.92
C       6.67       6.43      20.83
C      11.42       7.65       5.25
C       6.76       7.64      21.49
C      12.11       7.84       4.04
C      20.12       7.84      22.71
C      12.90       6.77       3.59
C      19.33       6.76      23.16
C      12.95       5.58       4.30
C      19.28       5.58      22.44
C      11.16      12.80       4.07
C      21.07      12.79      22.68
C      11.17      12.57       5.59
C      21.06      12.56      21.16
C       9.76      13.32       3.68
C      22.47      13.32      23.07
C      12.23      13.87       3.76
C      20.00      13.87      22.99
C      14.03       6.00      10.09
C      18.20       6.00      16.66
C      14.79       7.08      10.88
C      17.44       7.08      15.86
C      14.64       8.45      10.22
C      17.60       8.46      16.52
C      15.08       8.42       8.75
C      17.16       8.42      17.99
C      14.35       7.32       7.98
C      17.89       7.33      18.76
C      14.53       5.95       8.64
C      17.72       5.96      18.10
C      14.33       7.98      13.09
C      17.90       7.98      13.65
C      14.00       7.90      14.49
C      18.24       7.90      12.25
C      13.53       6.69      15.11
C       4.66       6.69      11.63
C      13.27       6.68      16.53
C       4.91       6.68      10.21
C      13.45       7.86      17.23
C       4.73       7.86       9.52
C      13.88       9.07      16.63
C      18.36       9.08      10.11
C      14.16       9.06      15.27
C      18.08       9.07      11.48
C      13.46      11.67      19.35
C      18.79      11.67       7.39
C      13.32      10.49      18.63
C      18.93      10.49       8.11
C      14.04      10.29      17.44
C      18.20      10.29       9.30
C      14.93      11.32      17.08
C      17.31      11.32       9.66
C      15.03      12.47      17.85
C      17.21      12.47       8.89
C      12.84       5.38      17.23
C       5.34       5.38       9.51
C      13.92       4.29      17.05
C       4.27       4.28       9.70
C      11.49       4.90      16.66
C       6.70       4.91      10.08
C      12.67       5.59      18.75
C       5.51       5.59       8.00
C      13.98       3.60      10.25
C       4.20       3.60      16.50
C      13.61       0.77      12.80
C       4.58       0.77      13.94
C      20.46      18.72      11.88
C      11.79      18.72      14.86
C      20.45      18.90      10.48
C      11.80      18.91      16.27
C      13.69       1.21       9.99
C       4.50       1.21      16.76
C      13.85       2.30      10.86
C       4.33       2.30      15.88
C      13.75       2.11      12.28
C       4.44       2.11      14.46
C      18.78      15.79       9.18
C      13.46      15.79      17.56
C      19.24      16.77      10.05
C      13.01      16.77      16.70
C      20.06      17.81       9.58
C      12.19      17.81      17.16
C      20.41      17.76       8.22
C      11.84      17.76      18.53
C      19.92      16.74       7.41
C      12.32      16.74      19.33
C      13.64       0.51      14.31
C       4.55       0.51      12.43
C      14.97       1.02      14.91
C       3.22       1.02      11.83
C      12.45       1.21      15.00
C       5.74       1.21      11.75
C      20.58      17.97      14.63
C      11.67      17.97      12.12
C      14.62       2.52       5.85
C      17.61       2.51      20.90
C       2.40       1.65       7.35
C      15.78       1.64      19.40
C       3.50       0.82       7.57
C      14.68       0.82      19.18
C      10.97      18.90       6.57
C      21.27      18.90      20.18
C      10.27      18.87       5.35
C      21.97      18.86      21.40
C       2.17       0.75       5.11
C      16.01       0.74      21.63
C       1.74       1.63       6.11
C      16.44       1.62      20.63
C      14.43      16.43       7.16
C      17.81      16.42      19.59
C      14.08      16.88       5.88
C      18.16      16.87      20.87
C      12.96      17.68       5.70
C      19.28      17.67      21.05
C      12.15      18.04       6.78
C      20.09      18.04      19.97
C      12.50      17.58       8.06
C      19.74      17.57      18.69
C      13.62      16.78       8.25
C      18.62      16.78      18.50
C      15.65      15.59       7.39
C      16.59      15.58      19.36
C      11.07       3.29       8.76
C       7.12       3.29      17.99
C      10.47       3.36      10.11
C       7.72       3.36      16.64
C       9.93       2.19      10.66
C       8.26       2.19      16.09
C       9.39       2.21      11.94
C       8.81       2.21      14.82
C       9.38       3.39      12.70
C       8.81       3.39      14.05
C       9.93       4.56      12.14
C       8.25       4.56      14.61
C      10.46       4.54      10.85
C       7.73       4.55      15.90
N      15.90      11.16      25.64
N      16.34      11.16       1.10
N      16.36      13.37      24.30
N      15.87      13.38       2.45
N      14.09       4.74      10.85
N      18.15       4.74      15.89
N      14.36       6.97      12.27
N      17.88       6.98      14.47
N       6.90       2.28      21.47
N      11.28       2.29       5.27
N      12.25       5.41       5.44
N       5.93       5.40      21.30
N      14.29      12.66      18.97
N      17.95      12.66       7.78
N      19.10      15.76       7.87
N      13.14      15.76      18.87
O      16.13      14.95      26.58
O      16.09      14.95       0.17
O      11.29      12.60       1.19
O      20.94      12.60      25.56
O      14.05      12.64       0.00
O      13.77       3.12      13.10
O       4.41       3.12      13.65
O      13.32       5.61      14.41
O       4.87       5.61      12.34
O      16.12       4.90      13.37
O      14.01       2.96       6.91
O       4.17       2.95      19.83
O      14.27       2.77       4.68
O      17.96       2.77      22.07
O      11.27       2.17       8.23
O       6.92       2.17      18.52
O      11.40       4.40       8.17
O       6.78       4.40      18.58
O      15.90      15.16       8.54
O      16.34      15.16      18.21
O      16.38      15.36       6.33
O      15.86      15.36      20.41
O      18.89      13.68       5.10
O      13.34      13.67      21.64
