74

Zn       6.00       6.16       8.63
Zn       5.94       9.15       8.91
H       6.42      -0.85      10.41
H       5.42      16.13       7.36
H       4.82       9.41       0.19
H       7.18       6.01      17.33
H       0.64       4.40       9.00
H      11.32      10.44       8.56
C       5.85       8.09       6.24
C       3.44       7.31       8.92
C       6.06       7.70      11.35
C       8.52       7.52       8.61
C       4.86      12.05       8.42
C       4.75      13.45       8.48
C       5.68      14.19       9.25
C       6.67      13.44       9.93
C       6.72      12.04       9.80
C       5.67      15.65       9.39
C       6.18      -0.35       8.37
C       5.33       1.86       7.63
C       6.18       1.12       8.48
C       7.02       1.86       9.34
C       6.92       3.26       9.37
C       5.34       3.26       7.68
C       5.82       8.22       4.73
C       7.01       8.26       4.00
C       6.99       8.40       2.60
C       5.76       8.51       1.90
C       4.57       8.45       2.67
C       4.60       8.31       4.06
C       5.64       8.75       0.46
C       6.35       6.67      17.07
C       7.40       7.12      14.87
C       6.21       6.96      15.64
C       4.98       7.05      14.95
C       4.94       7.32      13.57
C       6.12       7.48      12.84
C       7.35       7.37      13.50
C       1.07       6.26       8.90
C      10.89       8.58       8.67
C       1.97       7.32       8.90
C       9.99       7.52       8.65
C      12.23       8.11       8.75
C      -0.27       6.72       8.80
S       1.18       8.87       8.80
S      10.78       5.96       8.73
N       5.83      11.37       9.05
N       6.11       3.94       8.55
Cl       7.96      11.17      10.56
Cl       7.83      14.26      10.89
Cl       3.73      11.17       7.50
Cl       3.45      14.23       7.68
Cl       8.19       1.09      10.34
Cl       7.87       4.14      10.47
Cl       4.27       1.05       6.55
Cl       4.35       4.15       6.61
Cl       3.14       8.26       4.98
Cl       3.04       8.54       1.87
Cl       8.50       8.15       4.86
Cl       8.50       8.53       1.78
Cl       3.49       6.76      15.77
Cl       3.44       7.40      12.73
Cl       8.93       7.02      15.66
Cl       8.80       7.55      12.57
O       5.78       6.91       6.69
O       5.95       9.18       6.87
O       4.00       8.46       8.92
O       4.02       6.17       8.90
O       5.95       8.90      10.95
O       6.16       6.65      10.66
O       7.98       6.38       8.41
O       7.92       8.62       8.81
O       1.44       4.95       8.97
O      10.52       9.88       8.60
