126

Zn       8.32      14.95      14.16
Zn       8.28       1.04      14.19
Zn       1.53       7.86      28.29
Zn      15.16       8.36       0.02
H       5.15      14.70      16.77
H      11.30       2.44      11.29
H      12.26       0.80      19.76
H       2.30      14.37      10.62
H       2.76      12.59      23.54
H      14.88       3.70       4.65
H      16.06       4.12      22.42
H      15.99      12.12       5.92
H      15.87       1.36      25.74
H      16.25      14.88       2.60
H      14.92      12.62      23.82
H       2.72       3.49       4.57
H      14.11      14.12      17.65
H       4.36       1.13       8.88
H       2.84      10.68      25.15
H      14.95       5.60       3.02
H      15.02      10.70      25.42
H       2.78       5.39       2.94
H       5.44       2.35      17.35
H      11.22      14.75      11.23
H      12.17      14.07      16.08
H       6.16       0.87      10.58
H       3.26      14.61      18.40
H      13.18       2.42       9.64
C      10.05       0.26      12.37
C       6.52       0.25      15.97
C      15.94       5.00      24.39
C      15.95      11.25       3.94
C      15.89       2.38      25.36
C      16.16      13.86       2.98
C      15.84       3.46      26.23
C      16.09      12.79       2.10
C      15.87      12.18      24.10
C       1.80       3.96       4.23
C      15.93      11.12      24.99
C       1.83       5.01       3.33
C       3.92       1.34      18.51
C      12.70      15.67       9.96
C       4.96       1.40      17.59
C      11.65      15.68      10.87
C      13.29      14.83      17.76
C       4.31       0.33       9.62
C      12.21      14.80      16.89
C       5.31       0.18      10.56
C      16.56      16.13      21.32
C       0.09       0.12       7.03
C      10.11      15.73      15.93
C       6.43      15.74      12.50
C       3.28       0.12      18.82
C      13.27       0.27       9.50
C       5.40       0.23      16.96
C      11.14       0.29      11.36
C      13.33      15.78      18.80
C       3.21      16.07       9.63
C      11.16      15.73      17.00
C       5.30      15.76      11.52
C       0.60      12.74      23.58
C       0.57       3.47       4.71
C       0.71      10.59      25.39
C       0.64       5.60       2.88
C      15.99       2.62      23.97
C      16.13      13.62       4.37
C      15.88       4.79      25.77
C      15.99      11.46       2.56
C       1.27      -0.19      20.47
C      15.33       0.24       7.87
C       0.34      14.88      22.08
C       0.32       1.36       6.27
C       3.75      15.56      18.17
C      12.74       1.49       9.99
C      15.38      15.97      20.44
C       1.24      16.46       7.93
C      16.31       0.63      22.27
C      16.38      15.61       6.08
C       2.20       0.02      19.72
C      14.36       0.27       8.61
C      16.13       1.53      23.06
C      16.25      14.70       5.28
C       0.51      13.88      22.74
C       0.48       2.34       5.57
C      14.44      15.86      19.69
C       2.15      16.25       8.71
C      15.96       5.94      26.73
C      16.00      10.30       1.60
C       0.72       9.52      26.42
C       0.63       6.67       1.85
C       4.80      15.61      17.26
C      11.69       1.50      10.91
C      12.25       0.07      18.95
C       3.16      15.04      10.59
C      11.18       0.05      18.06
C       4.20      14.88      11.51
C       1.84      12.17      23.95
C      15.83       4.08       4.28
C       1.89      11.11      24.84
C      15.87       5.13       3.38
C      16.00       3.94      23.49
C      16.02      12.31       4.85
Br       3.35       2.94      19.36
Br      13.35      14.00       9.33
Br       9.75       1.25      18.40
Br       3.99      13.50      12.80
Br      15.99       6.77      23.71
Br      15.82       9.48       4.62
Br      15.76       3.13      28.10
Br      16.14      13.13       0.23
O       9.65      15.72      12.75
O       6.95       1.39      15.56
O       9.72       0.26      15.50
O       6.89      14.60      12.89
O       9.70      14.59      15.50
O       6.87       0.27      12.85
O       9.60       1.39      12.81
O       6.98      15.73      15.58
O       0.66       6.32      27.05
O      14.85       9.85       1.23
O      16.06       9.11      26.85
O       1.76       7.07       1.38
O       1.86       9.08      26.84
O      15.96       7.13       1.48
O      14.85       6.44      27.15
O       0.67       9.87       1.24
