86

Al       0.00       0.00      25.14
Al       0.00      14.52      16.76
H       1.10      12.56      13.08
H       2.89      16.48      13.08
H       2.89      12.56       3.68
H       1.10      16.48       3.68
H       1.10      12.31      20.30
H       2.89      10.35      16.91
H       2.89       4.17      25.00
H       1.10       2.21      21.60
H       1.10      18.69      16.91
H       2.89      16.73      20.30
H       2.89      -2.21      21.61
H       1.10      -4.17      25.00
C       2.00      -1.78      24.12
C       2.00      14.52       2.05
C       2.00       1.78      24.12
C       2.00      14.52      14.71
C       2.00      12.74      17.79
C       2.00      16.30      17.79
C       2.00      14.52      13.22
C       1.49      13.41      12.53
C       1.53      13.40      11.14
C       2.00      14.52      10.40
C       2.47      15.63      11.14
C       2.50      15.62      12.53
C       2.00      14.52       8.99
C       2.00      14.52       7.77
C       2.00      14.52       6.36
C       2.47      13.40       5.62
C       2.50      13.41       4.23
C       2.00      14.52       3.54
C       1.49      15.62       4.23
C       1.52      15.63       5.62
C       2.00      11.45      18.53
C       1.49      11.41      19.84
C       1.52      10.21      20.54
C       1.99       9.01      19.94
C       2.47       9.09      18.61
C       2.50      10.30      17.92
C       1.99       7.79      20.65
C       1.99       6.73      21.26
C       1.99       5.51      21.96
C       2.47       5.43      23.30
C       2.50       4.22      23.98
C       2.00       3.07      23.37
C       1.49       3.11      22.07
C       1.52       4.31      21.37
C       2.00      17.58      18.53
C       1.49     -10.30      17.92
C       1.52      -9.09      18.61
C       1.99      -9.00      19.94
C       2.47     -10.20      20.54
C       2.50     -11.40      19.84
C       1.99      -7.78      20.65
C       1.99      -6.73      21.26
C       1.99      -5.51      21.96
C       2.47      -4.31      21.37
C       2.50      -3.11      22.07
C       2.00      -3.06      23.37
C       1.49      -4.22      23.99
C       1.52      -5.42      23.30
Br       3.10      17.16      10.23
Br       0.89      11.87      10.23
Br       0.89      17.16       6.54
Br       3.10      11.87       6.54
Br       3.10       7.53      17.74
Br       0.89      10.18      22.32
Br       0.89       4.34      19.59
Br       3.10       6.98      24.16
Br       3.10     -10.18      22.32
Br       0.89      -7.53      17.74
Br       0.89      -6.98      24.17
Br       3.10      -4.34      19.59
O       2.94       1.59      24.96
O       2.94      -0.95      23.86
O       2.94      13.88       1.47
O       1.06       0.95      23.86
O       1.06      15.16       1.46
O       1.06      -1.59      24.97
O       2.94      15.47      18.05
O       2.94      15.15      15.30
O       2.94      12.93      16.94
O       1.06      16.11      16.94
O       1.06      13.57      18.05
O       1.06      13.88      15.30
