76

Zn       5.14       6.89       7.58
Zn       7.99       6.91       7.60
H       6.10       8.88       3.56
H      10.09       5.67       5.88
H       0.87       8.86      10.35
H      12.27       4.84       4.85
H       0.88       4.85       4.85
H      12.26       8.82      10.37
H       8.05       4.56       5.59
H       7.49       9.85      10.36
H       6.96       4.79      11.62
H       5.85      10.29       1.59
H       7.10       3.33      13.60
H       5.54       9.92      14.37
H       7.49       3.72       0.83
H       3.07       5.69       5.89
H      10.07       8.01       9.30
H       3.06       8.11       9.26
C       6.50       6.90      10.16
C       7.31       4.70       0.42
C       2.45       6.20       6.63
C      10.69       7.50       8.56
C       2.45       7.58       8.53
C      10.69       6.17       6.64
C       1.05       7.59       8.59
C      12.09       6.12       6.60
C       1.06       6.14       6.59
C      12.09       7.55       8.61
C       0.34       6.86       7.59
C       6.58       6.82       5.03
C      12.80       6.84       7.60
C       0.32       8.30       9.59
C      12.83       5.40       5.60
C       0.33       5.40       5.60
C      12.82       8.28       9.61
C       6.53       4.26       7.50
C       6.65       9.50       7.52
C       6.57       2.82       7.47
C       6.62      10.94       7.45
C       6.64       1.60       7.46
C       6.75       7.08       0.72
C       6.58      12.16       7.44
C       6.72       0.26       7.45
C       6.52      13.50       7.44
C       6.98       5.68       2.73
C       6.22       7.99      12.50
C       6.64       6.80       3.52
C       6.50       6.89      11.67
C       6.35       8.02       2.93
C       6.73       5.64      12.26
C       6.41       8.19       1.54
C       6.35       6.56      14.49
C       6.66       5.46      13.65
C       7.02       5.79       1.31
C       6.11       7.85      13.91
C       6.13       9.46       0.94
C       6.89       4.18      14.25
C       5.75       8.94      14.78
S       7.24       4.12       3.61
S       5.94       9.63      11.82
N       3.11       6.90       7.57
N      10.03       6.83       7.60
O       5.38       7.10       9.60
O       7.78       3.12       2.73
O       8.40       4.47       4.63
O       4.53       9.82      11.64
O       6.74      10.59      12.55
O       6.57       9.54      10.34
O       7.66       7.18       5.60
O       5.47       6.58       5.58
O       7.61       6.64       9.59
O       5.47       4.82       7.89
O       7.76       8.96       7.85
O       5.55       8.90       7.27
O       7.61       4.86       7.12
O       6.03       3.84       4.36
