336

Co      25.59      14.19      13.58
Co      13.95      13.57       3.26
Co       9.77       3.26       3.87
Co      13.95       3.87      14.19
Co      25.81      12.60      11.98
Co      10.00       4.85       5.47
Co      13.73      11.98       4.85
Co      13.73       5.46      12.60
H      26.73      16.87      13.66
H      12.80      13.66       0.58
H      10.92       0.58       3.79
H      12.80       3.79      16.87
H      24.67      12.51       9.30
H       8.85       4.93       8.14
H      14.87       9.30       4.93
H      14.87       8.14      12.52
H      28.63      17.12      12.42
H      10.90      12.42       0.33
H      12.82       0.33       5.02
H      10.90       5.02      17.12
H      22.76      13.75       9.06
H       6.95       3.70       8.40
H      16.78       9.05       3.70
H      16.78       8.39      13.75
H       6.82       0.94      11.49
H      16.89      11.48      16.51
H      22.64      16.51       5.96
H      16.90       5.96       0.94
H      20.85      14.69       7.78
H      20.85       2.76       9.67
H      18.69       7.78       2.76
H      18.69       9.66      14.69
H      15.19      15.42       8.40
H       8.53       8.40       2.02
H      15.19       2.02       9.05
H      24.35       9.05      15.43
H      12.49       0.33      10.75
H      12.49      17.12       6.70
H      27.05      10.75      17.12
H      11.24       6.70       0.33
H      13.25      14.15       9.34
H      10.48       9.35       3.29
H      13.25       3.29       8.10
H      10.48       8.10      14.16
H      22.34      16.83      12.02
H       6.52       0.62       5.43
H      17.20      12.02       0.62
H      17.20       5.43      16.83
H       9.37       2.29       8.40
H      14.35       8.40      15.16
H      25.19      15.15       9.05
H      14.35       9.05       2.29
H      10.39       0.33       6.43
H      26.21      17.12      11.02
H      13.33       6.43      17.12
H      13.33      11.02       0.33
H      11.05       3.68       9.61
H      12.67       9.61      13.76
H      11.05      13.76       7.84
H      12.67       7.84       3.69
H      16.63      16.56       5.04
H      16.63       0.88      12.41
H       7.10       5.04       0.89
H      22.91      12.41      16.56
H      10.73       1.11      13.03
H      28.81      13.04      16.34
H      10.73      16.34       4.41
H      12.99       4.41       1.11
H      16.95      13.14       7.61
H      16.95       4.31       9.83
H       6.78       7.61       4.31
H      22.59       9.83      13.14
H      16.95      17.15      11.83
H       6.77      11.83       0.30
H      16.96       0.29       5.62
H      22.58       5.62      17.15
H      18.63      14.34       9.02
H      18.63       3.10       8.43
H      20.91       9.02       3.11
H      20.91       8.43      14.34
H      23.96      14.52      16.64
H      15.58      16.64       2.93
H       8.14       2.93       0.81
H      15.58       0.81      14.52
H      11.63       9.53      11.65
H      11.63       7.92       5.79
H      12.10      11.65       7.92
H      12.10       5.79       9.53
H      16.61      15.33       0.68
H       7.11       0.68       2.12
H      16.61       2.11      16.77
H      22.93      16.77      15.33
H      11.07       8.04      10.84
H      11.07       9.40       6.61
H      12.66      10.84       9.41
H      12.66       6.60       8.04
H      25.49      14.04      17.37
H      14.05      17.38       3.40
H       9.67       3.40       0.07
H      14.05       0.07      14.05
H      10.10       8.79      12.12
H      10.10       8.65       5.32
H      13.63      12.12       8.65
H      13.63       5.32       8.80
H      20.54       1.39      15.30
H      18.99      15.30      16.05
H      20.54      16.05       2.15
H       3.18       2.15       1.39
H      22.95      10.87       7.33
H      22.95       6.58      10.12
H      16.59       7.33       6.57
H      16.59      10.12      10.88
H      19.33       2.25      16.27
H      20.21      16.26      15.19
H      19.33      15.20       1.18
H       4.40       1.18       2.25
H       8.35       9.91       6.47
H      24.16       7.54      10.97
H      15.37       6.47       7.54
H      15.37      10.97       9.91
H      19.12       2.10      14.51
H      20.42      14.50      15.34
H      19.12      15.34       2.94
H       4.60       2.94       2.10
H       8.56      11.66       6.62
H       8.56       5.78      10.83
H      15.16       6.62       5.78
H      15.16      10.83      11.67
C      27.60      14.78      11.54
C      11.94      11.54       2.67
C      11.79       2.67       5.91
C      11.94       5.91      14.78
C      23.80      14.63      11.39
C       7.99       2.81       6.06
C      15.74      11.39       2.81
C      15.74       6.05      14.63
C      12.92      15.54      10.96
C      10.80      10.96       1.91
C      12.92       1.91       6.49
C      10.80       6.49      15.54
C      22.66      15.21      10.63
C       6.85       2.23       6.82
C      16.87      10.63       2.23
C      16.87       6.82      15.22
C      13.34      16.74      11.55
C      10.38      11.55       0.71
C      13.35       0.71       5.90
C      10.38       5.90      16.74
C      22.24      14.62       9.43
C       6.43       2.82       8.02
C      17.30       9.43       2.82
C      17.30       8.02      14.63
C       6.51       0.00      11.03
C      17.21      11.03      17.44
C      22.33      17.44       6.42
C      17.21       6.42       0.01
C      21.17      15.14       8.72
C       5.35       2.30       8.73
C      18.37       8.72       2.30
C      18.37       8.73      15.14
C      15.09      16.95       9.90
C       8.63       9.90       0.49
C      15.09       0.49       7.54
C      24.45       7.54      16.96
C      20.50      16.27       9.22
C       4.68       1.18       8.23
C      19.04       9.22       1.18
C      19.04       8.23      16.27
C      14.66      15.78       9.28
C       9.06       9.29       1.67
C      14.67       1.67       8.16
C      24.87       8.16      15.78
C      20.92      16.89      10.40
C       5.11       0.56       7.05
C      18.62      10.40       0.56
C      18.62       7.05      16.89
C      13.58      15.08       9.81
C      10.14       9.81       2.37
C      13.59       2.37       7.63
C      25.95       7.63      15.08
C      22.00      16.36      11.10
C       6.18       1.09       6.35
C      17.54      11.10       1.09
C      17.54       6.35      16.36
C       9.09       0.94      10.06
C      14.63      10.06      16.50
C      24.91      16.50       7.39
C      14.63       7.39       0.95
C      18.58      16.11       7.78
C      18.59       1.33       9.67
C       5.14       7.78       1.33
C      20.96       9.67      16.12
C       9.66       2.05       9.42
C      14.06       9.42      15.40
C      25.48      15.39       8.03
C      14.06       8.03       2.05
C      18.02      16.75       6.67
C      18.02       0.69      10.78
C       5.71       6.67       0.70
C      21.52      10.77      16.75
C      10.60       2.82      10.10
C      13.13      10.10      14.62
C      10.60      14.62       7.35
C      13.13       7.35       2.83
C      17.08      16.07       5.90
C      17.08       1.37      11.55
C       6.64       5.90       1.38
C      22.46      11.55      16.07
C      10.98       2.49      11.41
C      12.75      11.41      14.95
C      10.98      14.95       6.04
C      12.75       6.04       2.50
C      16.70      14.76       6.23
C      16.70       2.69      11.22
C       7.02       6.23       2.69
C      22.84      11.22      14.76
C      10.41       1.37      12.03
C      13.31      12.03      16.08
C      10.41      16.08       5.42
C      13.31       5.42       1.37
C      17.27      14.15       7.35
C      17.27       3.30      10.09
C       6.46       7.35       3.31
C      22.27      10.09      14.15
C       9.47       0.59      11.36
C      14.25      11.36      16.86
C      25.29      16.86       6.09
C      14.25       6.09       0.59
C      18.20      14.81       8.13
C      18.20       2.63       9.31
C       5.52       8.14       2.64
C      21.34       9.31      14.81
C      11.99       3.30      12.13
C      27.55      12.13      14.14
C      11.99      14.14       5.32
C      11.73       5.32       3.31
C      15.68      14.04       5.42
C      15.68       3.41      12.03
C       8.04       5.42       3.41
C      23.85      12.03      14.04
C      18.71       0.31      15.62
C      20.82      15.62      17.13
C      18.71      17.14       1.83
C       5.01       1.83       0.31
C       8.96      10.55       8.41
C       8.96       6.90       9.04
C      14.76       8.41       6.90
C      14.76       9.03      10.55
C      26.08      17.17      16.77
C      13.45      16.77       0.27
C      10.26       0.27       0.68
C      13.46       0.67      17.17
C       9.50       9.40       9.00
C       9.50       8.05       8.45
C      14.22       9.00       8.05
C      14.22       8.45       9.40
C      25.54      15.93      16.35
C      13.99      16.35       1.52
C       9.72       1.52       1.10
C      14.00       1.10      15.93
C      10.04       9.82      10.24
C      10.04       7.62       7.20
C      13.68      10.24       7.63
C      13.68       7.20       9.82
C      24.83      14.90      17.17
C      14.70      17.17       2.54
C       9.02       2.54       0.28
C      14.70       0.28      14.91
C      10.75       9.00      11.26
C      10.75       8.44       6.18
C      12.98      11.26       8.45
C      12.97       6.18       9.00
C      19.46       1.58      15.41
C      20.07      15.41      15.86
C      19.46      15.87       2.04
C       4.26       2.04       1.58
C       8.21      10.76       7.14
C       8.21       6.69      10.31
C      15.51       7.14       6.68
C      15.51      10.30      10.77
N      25.74      15.77      15.03
N      13.79      15.03       1.68
N       9.93       1.68       2.42
N      13.79       2.41      15.77
N       9.84      11.14      10.40
N       9.84       6.31       7.05
N      13.89      10.40       6.31
N      13.88       7.05      11.14
N      26.38      16.89      14.62
N      13.15      14.62       0.56
N      10.57       0.56       2.83
N      13.15       2.83      16.89
N      25.02      11.56       9.29
N       9.20       5.89       8.16
N      14.52       9.28       5.89
N      14.52       8.16      11.56
O      26.96      15.31      12.52
O      12.58      12.52       2.14
O      11.15       2.14       4.93
O      12.58       4.93      15.31
O      24.44      13.65      10.86
O       8.62       3.80       6.58
O      15.10      10.86       3.79
O      15.10       6.58      13.65
O      11.49      13.63      11.06
O      12.23      11.06       3.81
O      11.49       3.81       6.39
O      12.23       6.38      13.63
O      24.09      15.11      12.54
O       8.28       2.33       4.91
O      15.45      12.54       2.33
O      15.45       4.91      15.11
O       8.22       0.18       9.30
O      15.50       9.30      17.27
O      24.04      17.26       8.14
O      15.50       8.14       0.18
O      19.45      16.87       8.54
O      19.46       0.58       8.91
O       4.27       8.54       0.58
O      20.09       8.90      16.87
O      12.38       4.40      11.59
O      11.35      11.59      13.05
O      12.38      13.05       5.86
O      11.34       5.86       4.40
O      15.30      14.58       4.32
O      15.30       2.87      13.12
O       8.42       4.32       2.87
O      24.24      13.12      14.58
O      12.44       2.87      13.25
O      27.10      13.25      14.57
O      12.44      14.57       4.20
O      11.28       4.20       2.88
O      15.24      12.92       5.85
O      15.24       4.52      11.60
O       8.48       5.85       4.53
O      24.30      11.60      12.92
