50

Al       3.97      -5.04       8.73
Al       3.97       5.04       2.91
C       1.98      -5.04      10.77
C       1.98      13.34       7.70
C       1.98      -3.26       7.71
C       1.98       6.81       3.94
C       1.98       3.26       3.93
C       1.98       5.04       0.86
C       2.02      11.87       5.59
C       2.02       8.28       6.04
C       1.99      12.06       6.96
C       1.99       8.09       4.67
C       1.97       9.66       6.38
C       1.97      10.49       5.25
C       2.02      -0.70       7.48
C       2.02       0.70       4.15
C       1.99      -1.98       6.96
C       1.99       1.98       4.67
C       1.97      -0.28       5.18
C       1.97       0.28       6.46
C       2.02      -6.13      13.10
C       2.02      -3.94      15.98
C       1.99      -5.04      12.26
C       1.99      -5.04      16.83
C       1.97      -4.34      14.62
C       1.97      -5.73      14.46
S       1.91      10.56       7.84
S       1.91       9.59       3.79
S       1.91      -2.00       5.22
S       1.91       2.00       6.41
S       1.91      -3.52      13.11
S       1.91      -6.55      15.98
Cl       2.05      13.12       4.42
Cl       2.05       7.03       7.21
Cl       2.05      -0.32       9.15
Cl       2.05       0.32       2.48
Cl       2.05      12.38      12.60
Cl       2.05      -2.31      16.48
O       1.05      -4.09       7.43
O       1.05      -4.39      10.19
O       1.05      13.52       8.55
O       2.91      -3.45       8.56
O       2.91      14.17       7.43
O       2.91      -5.69      10.19
O       1.05       4.39       1.44
O       1.05       6.63       3.09
O       1.05       4.09       4.20
O       2.91       5.69       1.45
O       2.91       3.45       3.08
O       2.91       5.98       4.20
