100

Zn      21.68       0.92       0.92
Zn      12.15      10.20      10.20
Zn      31.22      10.20      10.20
Zn      21.68      19.50      19.50
Zn      21.68       0.92      19.49
Zn      21.69      19.49       0.92
H      27.92      18.20       0.62
H       4.56       1.66       1.66
H      17.12       1.66       1.66
H      37.72      18.03      18.03
H      36.29      17.81      19.07
H      36.29      19.07      17.81
H      27.34      18.03      18.03
H      28.77      19.07      17.81
H      28.77      17.81      19.07
H      15.45       0.62      18.20
H      15.46      18.20       0.62
H      27.91       0.62      18.20
C      10.84      18.56       1.84
C      10.84       4.67      15.73
C       4.06       0.03       0.03
C      10.84      17.54       2.85
C      10.84       2.85      17.54
C      36.91      18.56      18.56
C      28.14      18.56      18.56
C      10.84      15.73       4.67
C      32.53      14.86       5.55
C      10.84       5.55      14.86
C      32.53      13.91       6.49
C      10.84       6.49      13.91
C      10.84       1.84      18.56
C      32.53      13.05       7.36
C      10.84       7.36      13.05
C      32.53      18.56      18.56
C      13.41       0.02       0.02
C       8.27       0.02       0.02
C      10.84       1.84       1.84
C      10.84       8.37       8.37
C      32.53      12.03       8.38
C      32.53       8.38      12.03
C      19.11       0.01       0.01
C       2.58       0.01       0.01
C      32.53      12.03      12.03
C      32.53      17.54      17.54
C      32.53      16.67      16.67
C      32.53      15.73      15.73
C      10.84      16.67       3.72
C      32.53      14.86      14.86
C      32.53      13.91      13.91
C      32.53      13.04      13.04
C      10.84       2.86       2.86
C      10.84       3.73       3.73
C      10.84       3.72      16.67
C      10.84       4.67       4.67
C      27.55      19.19       0.36
C      15.82       0.36      19.19
C      15.82      19.19       0.36
C      27.55       0.36      19.19
C      10.84       5.55       5.55
C      10.84       6.49       6.49
C      10.84       7.36       7.36
C      37.48      19.54      19.54
C      27.58      19.54      19.54
C      14.89       0.06       0.06
C       6.79       0.06       0.06
C      26.68      20.12       1.27
C      16.69       1.27      20.11
C      16.69      20.12       1.27
C      26.68       1.27      20.12
C      16.74       0.94       0.94
C       4.94       0.94       0.94
C      17.62       0.03       0.03
Cl      26.16      19.71       2.88
Cl      17.21       2.88      19.71
Cl      17.21      19.71       2.88
Cl      26.16       2.88      19.71
O      32.53      19.77       2.26
O      10.84       0.63      18.16
O      10.85      18.16       0.63
O      19.70       0.81       0.81
O       1.98       0.81       0.81
O      41.36      19.61      19.61
O      23.69      19.61      19.61
O      32.52       2.26      19.77
O      32.53      19.77      18.15
O      32.53      18.15      19.77
O      23.68       0.80      19.59
O      19.69      19.59       0.80
O      19.69       0.80      19.59
O      23.68      19.59       0.80
O      10.84       2.25       0.63
O      10.84       0.63       2.25
O       9.70       8.78       8.78
O      11.99       8.78       8.78
O      31.38      11.63       8.78
O      11.99       8.78      11.63
O      11.99      11.63       8.78
O      31.38       8.78      11.63
O      31.38      11.63      11.63
O      33.67      11.63      11.63
