60

Al       4.05       4.48       8.56
Al       0.72       4.48       8.57
H      -0.92       4.96      10.24
H       2.35       4.00       6.90
H       3.64       4.52       4.50
H       3.63       4.91       2.04
H       1.00       6.02       4.71
H       0.45       2.98      12.47
H      -2.19       4.49      12.60
H      -2.14       4.15      15.08
H       2.11       6.91       2.77
H       0.99       7.70       1.63
H       1.66       6.12       1.23
H      -0.16       2.94      15.95
H       0.50       1.35      15.58
H      -0.63       2.13      14.44
H       2.35      -0.02       7.82
H       3.13       1.54       7.86
H      -0.91       8.97       9.32
H      -1.69       7.42       9.27
C       2.36       6.89       8.70
C       2.44       3.99      10.93
C      -0.92       2.07       8.43
C      -1.00       4.98       6.21
C      -1.00       5.24       4.74
C       4.51       4.95       4.00
C       4.50       5.17       2.63
C      -1.05       5.75       1.99
C       0.11       6.08       2.74
C       0.12       5.79       4.11
C      -1.10       6.02       0.60
C       2.60       3.05      16.55
C       2.54       3.30      15.16
C       1.37       2.96      14.43
C       1.34       3.22      13.06
C       2.46       3.76      12.40
C      -3.05       4.08      13.12
C      -3.02       3.88      14.50
C       4.36      -0.04       8.20
C      -2.92       9.00       8.94
C      -1.11       0.65       8.50
C       2.55       8.31       8.64
C      -3.12      10.41       8.78
C       4.56      -1.45       8.36
C       1.28       6.74       2.07
C       0.20       2.31      15.13
S       0.19      -0.41       9.00
S       1.24       9.37       8.14
N       3.21       0.53       7.78
N      -1.77       8.43       9.36
O       3.43       6.21       8.98
O       1.32       4.28      10.38
O       0.23       2.59       8.63
O      -2.12       5.06       6.81
O      -1.98       2.75       8.15
O       0.11       4.68       6.76
O       1.21       6.37       8.51
O       3.56       3.90      10.32
O      -0.94       4.98       9.27
O       2.38       3.97       7.87
