53

Al       2.98      -4.37       8.02
H       1.56      -2.30      14.20
H       1.18      -0.16       3.05
H      -0.75       7.02       6.54
H       2.17       1.98       6.64
H       0.67      -2.20       4.43
H      -0.30       9.16       7.77
H       0.58       8.86       2.89
H       0.42      -6.45      14.28
H       1.53      -2.35      11.69
C       1.01      -4.42      10.08
C       1.04      -2.56       7.03
C       0.69      11.40       6.88
C       1.32      -3.21      13.65
C       1.00      -4.37      14.38
C       1.28      -0.15       4.13
C       1.72       1.03       4.76
C      -0.10       7.81       4.65
C      -0.34       7.88       6.03
C       1.86       1.06       6.16
C       1.61      -0.08       6.92
C       1.19      -1.27       6.29
C       1.01      -1.28       4.90
C      -0.08       9.07       6.70
C       0.47      10.18       6.04
C       0.73      10.09       4.66
C       0.42       8.92       3.97
C       0.68      -5.56      13.71
C       0.70      -5.59      12.32
C       1.00      -4.43      11.58
C       1.31      -3.25      12.26
C       3.27       5.49       1.91
C       2.38       3.22       1.95
C       0.97      -4.34      15.85
C      -0.43       6.57       3.92
C       2.76       4.41       4.04
C       2.05       2.24       3.99
N       2.80       4.37       2.63
N       2.39       3.21       0.62
N       3.33       5.43       0.58
N      -0.28       6.58       2.58
N       3.08       5.54       4.67
N       1.98       2.15       2.65
N       2.39       3.32       4.71
Cl       0.02      10.42      11.50
Cl       1.34      11.42       3.76
Cl       1.79       0.05       8.63
O       1.68      12.16       6.67
O       1.94      -5.04       9.49
O       1.94      -2.82       7.90
O      -0.17      11.58       7.81
O       0.08      -3.33       6.73
O       0.08      -3.76       9.52
