67

Al       4.31       4.03       7.03
H       2.20      -6.08      12.91
H       1.99      -1.79      12.88
H       2.41      -3.93       9.19
H       3.06       8.46      11.90
H       1.76      10.51       8.31
H       1.34       2.00       0.77
H       2.64       6.13       0.77
H       3.22      -0.32      11.76
H       1.19      -2.23       8.47
H       0.38       7.11       6.80
H       0.25       5.52       9.66
H       4.16       2.48       4.44
H       4.02       5.76       4.47
H       1.60       2.79      11.28
H       2.80      -0.27       6.01
C       2.09       4.06       4.90
C       2.20       2.29       8.04
C       2.31       5.90       8.06
C       2.14      -3.94      13.08
C       2.20      -5.14      12.36
C       2.26      -5.17      10.96
C       2.29      -3.94      10.27
C       2.20      -2.72      10.96
C       2.11      -2.73      12.36
C       2.76       7.26      10.18
C       2.75       8.49      10.85
C       2.39       9.69      10.23
C       2.04       9.62       8.88
C       2.02       8.41       8.18
C       2.36       7.20       8.82
C       1.65       2.92       1.27
C       1.65       2.90       2.67
C       2.04       4.05       3.39
C       2.38       5.21       2.66
C       2.36       5.20       1.27
C       2.01       4.06       0.54
C       2.75      -0.29      10.77
C       2.74       0.93      10.09
C       2.20       1.01       8.79
C       1.66      -0.16       8.22
C       1.65      -1.36       8.93
C       2.20      -1.45      10.22
C       1.74       8.52       6.70
C       3.17       6.09      11.03
C       1.23       1.58       3.26
C       2.66       6.54       3.30
C       3.34       2.08      10.83
C       1.06      -0.24       6.84
O       1.29       5.14       8.23
O       1.11       4.61       5.52
O       1.21       2.54       7.26
O       3.29       5.63       7.28
O       3.19       3.09       8.21
O       3.11       3.54       5.48
O       0.96       7.57       6.15
O       2.24       9.41       6.04
O       4.05       5.21      10.50
O       2.74       5.96      12.16
O       0.35       1.60       4.29
O       1.66       0.53       2.81
O       3.44       6.55       4.40
O       2.17       7.55       2.86
O       2.59       3.01      11.37
O       0.35       2.05      10.98
O       1.81      -0.24       5.78
O       4.05      -0.38       6.80
