116

Zn       4.58      10.61       9.69
Zn       4.59       7.83       9.63
H       6.86       8.10      13.47
H       5.97       5.72       8.06
H       5.91      12.69       8.09
H       3.25       5.70      11.18
H       3.36      15.26      11.40
H       6.06       3.22       7.99
H       6.04      15.19       8.01
H       3.26       3.20      11.30
H       6.80      17.10       9.13
H       2.58       1.34      10.20
H       2.63      17.12      10.23
H       6.90      10.32       5.82
H       6.75       1.31       9.10
H       4.22      12.62      18.66
H       4.33      14.72      17.34
H       6.24      15.13      15.80
H       8.05      13.43      15.59
H       7.92      11.32      16.89
H       4.09       5.84       0.69
H       4.18       3.75       2.01
H       6.12       3.31       3.52
H       7.95       4.99       3.70
H       3.33       8.03       5.16
H       7.83       7.10       2.39
H       7.88      12.20       0.84
H       7.88      14.33       2.12
H       5.88      14.97       3.47
H       3.89      13.47       3.52
H       3.91      11.34       2.25
H       7.89       6.20      18.45
H       7.84       4.08      17.17
H       5.82       3.46      15.86
H       3.85       4.99      15.83
H       3.35      10.47      14.20
H       3.92       7.12      17.09
H       7.43       8.19      15.90
H       7.43      10.21       3.38
H       3.80       8.00       2.71
H       3.86      10.48      16.64
H       3.35      12.76      11.33
C       4.78       9.25       7.09
C       3.86       3.71      10.54
C       4.70      15.45       9.70
C       4.66       2.99       9.64
C       5.88      17.64       9.35
C       3.50       0.80       9.99
C       3.56      17.65      10.00
C       5.82       0.78       9.33
C       4.66       1.51       9.65
C       4.71      16.92       9.69
C       7.18       9.19       9.65
C       4.75       9.23      12.23
C       2.01       9.19       9.67
C       8.62       9.19       9.66
C       0.56       9.19       9.67
C       6.21       8.63      14.17
C       6.23       9.81       5.13
C       4.22       8.52       4.76
C       4.24       9.97      14.58
C       6.53       8.69      15.53
C       6.52       9.74       3.77
C       4.49       8.50       3.40
C       3.92      13.35      10.61
C       4.53       9.98      15.94
C       5.68       9.34      16.44
C       5.65       9.11       2.88
C       5.07       9.27      13.69
C       5.08       9.20       5.63
C       5.99      10.54      18.62
C       5.89       7.90       0.69
C       5.90      10.34       0.70
C       5.94       8.10      18.61
C       5.85       9.12       1.40
C       5.39       5.11       8.75
C       5.91       9.32      17.91
C       6.06      11.82      17.86
C       5.06      12.80      17.98
C       5.12      13.98      17.24
C       6.19      14.21      16.38
C       7.20      13.25      16.26
C       7.13      12.07      16.99
C       5.95       6.61       1.45
C       4.93       5.65       1.35
C       4.99       4.48       2.09
C       5.37      13.31       8.80
C       6.07       4.23       2.94
C       7.10       5.17       3.04
C       7.04       6.36       2.30
C       5.89      11.63       1.46
C       7.01      12.48       1.43
C       7.01      13.68       2.15
C       5.89      14.04       2.91
C       4.77      13.20       2.93
C       4.78      12.01       2.22
C       5.91       6.81      17.86
C       3.86       5.10      10.50
C       7.01       5.94      17.87
C       6.98       4.74      17.16
C       5.84       4.39      16.42
C       4.74       5.25      16.41
C       4.77       6.45      17.12
C       3.93      14.74      10.64
C       5.43       3.72       8.73
C       5.44      14.70       8.77
N       4.63      12.65       9.71
N       4.61       5.79       9.62
O       5.05      10.34       7.70
O       5.01       8.14      11.62
O       4.26      10.28      11.70
O       4.28       8.21       7.63
O       6.61      10.26      10.04
O       2.57       8.09       9.99
O       2.57      10.28       9.36
O       6.62       8.12       9.26
