56

Zn       6.76       6.65       6.95
Zn       9.22       7.07       8.96
Zn       6.75       9.13       8.97
Zn       8.78       9.10       6.47
H       6.99      13.51       8.34
H       8.93       3.16      10.25
H       5.80       5.36       0.46
H       2.59       6.35       6.59
H       2.37       8.47       8.82
H       9.19      13.27       6.18
H      10.74      11.49      15.58
H      11.95       5.76       7.00
H      12.71      10.42       6.93
H       8.64       3.92       5.60
C      11.46       8.19       7.37
C       8.56      13.78       6.92
C       8.56       2.92       8.09
C       4.30       7.73       8.11
C       8.47       2.16       6.96
C       8.34       4.40       8.06
C       7.66      11.58       7.58
C       8.27       8.37      11.41
C       7.58       7.56       4.27
C       8.46       8.57      12.82
C       8.87       8.94      15.37
C       7.22       7.22       1.66
C       7.02       7.06       0.27
C      13.05       5.76       7.15
C      13.45       9.61       6.77
C       8.48       2.82       5.61
C       8.99       2.40       9.44
C       8.65       8.75      14.01
C       7.41       7.39       2.85
C       2.82       7.79       8.10
C       2.09       7.08       7.23
C      12.94       8.24       7.15
C      13.71       7.11       7.20
C       7.69      13.05       7.64
O       7.90       7.99       7.84
O       9.03       7.49      10.86
O       8.28       8.56       4.64
O       7.37       9.07      10.84
O       7.00       6.69       5.00
O      10.24      10.85      15.04
O      13.68       4.72       7.21
O       1.46       9.83       6.26
O       8.39       2.19       4.57
O       9.57      14.36       9.66
O       7.32       4.82       7.43
O       8.43      10.99       6.74
O      11.05       7.53       8.38
O       4.87       8.57       8.89
O      10.76       8.87       6.55
O       4.87       6.89       7.35
O       9.18       5.10       8.72
O       6.87      11.01       8.41
