202

Cd       5.55       0.00       0.00
Cd       4.60       7.12      11.44
Cd       2.61      11.11       1.67
Cd       5.65      10.26      13.12
Cd       6.60       3.13      21.21
Cd       3.55       3.99       9.77
H      -0.19       9.41       2.71
H       8.45      11.95      14.15
H       9.40       4.83      20.18
H       0.75       2.29       8.74
H       8.42       9.68       2.64
H      -0.16      11.69      14.09
H       0.79       4.57      20.24
H       9.36       2.55       8.80
H       9.03      13.51       0.77
H      -0.77       7.85      12.21
H       0.18       0.73      22.12
H       9.97       6.39      10.67
H       0.39      13.09       0.89
H       7.87       8.27      12.33
H       8.81       1.15      22.00
H       1.34       5.97      10.56
H       4.53       4.43       6.77
H       5.62       2.69      18.21
H       4.68       9.81      16.12
H       3.58      11.55       4.68
H       4.84       3.19       4.61
H       5.31       3.93      16.05
H       4.37      11.05      18.28
H       3.89      10.31       6.84
H       1.40      13.91       6.56
H       6.86       7.45      18.00
H       7.80       0.33      16.32
H       2.35       6.79       4.88
H       3.11       1.04       8.67
H       7.04       6.08      20.11
H       6.10      13.21      14.22
H       2.16       8.16       2.77
H       3.95      10.40      21.51
H       4.32      10.96      10.06
H       5.26       3.84       1.38
H       4.89       3.28      12.82
H       5.12       9.30      22.22
H       3.14      12.07      10.78
H       4.09       4.94       0.67
H       6.06       2.18      12.11
H       3.62       9.03      19.57
H       4.64      12.33       8.13
H       5.58       5.21       3.31
H       4.57       1.91      14.76
H       5.28       8.50      19.90
H       2.98      12.86       8.46
H       3.92       5.74       2.98
H       6.23       1.38      14.42
H       3.12       6.72      19.85
H       7.03       0.40       8.41
H       6.09       7.52       3.03
H       2.17      13.84      14.47
H       4.51       6.43      20.92
H       5.64       0.69       9.47
H       4.70       7.81       1.97
H       3.56      13.55      13.41
H       2.33       5.43      22.14
H       7.82       1.69      10.70
H       6.87       8.81       0.74
H       1.39      12.55      12.19
H       0.96       6.55      21.94
H       9.19       0.57      10.50
H       8.25       7.69       0.94
H       0.02      13.68      12.38
H       1.89       6.57       0.58
H       8.26       0.55      12.02
H       7.32       7.67      22.31
H       0.94      13.69      10.86
C      -0.64      10.30       2.27
C       8.91      11.06      13.71
C       9.85       3.94      20.61
C       0.30       3.18       9.17
C       9.07      10.45       2.23
C      -0.80      10.91      13.67
C       0.14       3.79      20.65
C      10.01       3.33       9.21
C       8.52      11.61       1.65
C      -0.26       9.76      13.10
C       0.69       2.64      21.23
C       9.46       4.49       9.79
C       9.41      12.58       1.19
C      -1.15       8.78      12.64
C      -0.21       1.66      21.69
C      10.36       5.46      10.25
C      -0.32      12.36       1.27
C       8.58       9.00      12.71
C       9.52       1.88      21.61
C       0.63       5.24      10.17
C       7.09      11.82       1.49
C       1.18       9.55      12.93
C       2.12       2.43      21.39
C       8.03       4.70       9.95
C       4.28       3.37       6.69
C       5.87       3.75      18.13
C       4.92      10.87      16.20
C       3.34      10.49       4.76
C       4.44       2.69       5.48
C       5.71       4.43      16.93
C       4.77      11.55      17.40
C       3.49       9.81       5.96
C       4.08       1.34       5.41
C       6.07       5.78      16.86
C       5.13      12.91      17.47
C       3.14       8.46       6.03
C       3.58       0.72       6.58
C       6.57       6.40      18.02
C       5.62      13.52      16.31
C       2.64       7.84       4.87
C       3.47       1.47       7.74
C       6.68       5.65      19.18
C       5.73      12.77      15.15
C       2.53       8.59       3.70
C       4.24       0.59       4.18
C       5.91       6.53      15.62
C       4.97      13.65      18.71
C       3.30       7.71       7.26
C       3.12       8.61      22.42
C       5.14      12.75      10.98
C       6.09       5.63       0.47
C       4.06       1.49      11.91
C       4.19       9.34      21.63
C       4.07      12.02      10.19
C       5.02       4.90       1.25
C       5.13       2.22      12.69
C       4.27       8.55      20.32
C       3.99      12.81       8.87
C       4.94       5.69       2.57
C       5.21       1.43      14.01
C       3.72       7.16      20.66
C       4.54      14.20       9.22
C       5.49       7.08       2.22
C       4.66       0.04      13.67
C       1.97       6.44      22.38
C       8.18       0.69      10.93
C       7.24       7.81       0.51
C       1.02      13.56      11.95
N       0.21      11.23       1.78
N       8.06      10.14      13.23
N       9.00       3.02      21.10
N       1.15       4.10       9.66
N       6.58      12.95       0.95
N       1.68       8.42      12.39
N       2.63       1.30      21.94
N       7.52       5.83      10.50
N       5.27      12.75       0.94
N       2.99       8.61      12.38
N       3.93       1.49      21.94
N       6.22       5.63      10.50
N       4.98      11.55       1.46
N       3.28       9.81      12.90
N       4.22       2.69      21.43
N       5.93       4.43       9.99
N       6.11      10.94       1.81
N       2.15      10.43      13.26
N       3.10       3.31      21.07
N       7.05       3.81       9.63
N       3.81       2.78       7.80
N       6.34       4.34      19.24
N       5.39      11.47      15.09
N       2.87       9.90       3.64
N       4.53       1.15       2.98
N       5.62       5.98      14.42
N       4.68      13.10      19.90
N       3.58       8.27       8.46
N       4.62       0.11       2.16
N       5.53       7.01      13.60
N       4.59      14.13      20.73
N       3.68       7.23       9.28
N       2.52      13.21       2.83
N       5.74       8.15      14.27
N       6.69       1.03      20.06
N       3.46       6.09       8.62
N       2.27      13.48       4.10
N       6.00       7.88      15.54
N       6.94       0.76      18.78
N       3.21       6.36       7.34
N       2.43      12.28      22.57
N       5.83       9.08      11.13
N       6.78       1.96       0.31
N       3.37       5.16      11.75
N       1.94      11.85      21.55
N       6.32       9.51      10.11
N       7.27       2.39       1.33
N       2.88       4.73      12.77
N       1.47      11.43      20.58
N       6.79       9.93       9.13
N       7.73       2.81       2.31
N       2.42       4.31      13.75
N       2.88       7.42      21.84
N       5.38      13.95      10.40
N       6.32       6.82       1.05
N       3.83       0.30      12.49
O       2.54       8.98       0.59
O       5.72      12.38      12.03
O       6.66       5.26      22.30
O       3.49       1.86      10.86
