104

Al       3.93      28.49      24.67
Al       3.93      14.25      16.45
H       3.19      15.69      10.17
H       0.91      12.00      10.39
H       0.91      16.49       6.06
H       3.19      12.80       6.28
H       1.97      12.71       8.26
H       1.97      15.78       8.19
H       3.19      18.96      20.84
H       0.91      20.62      17.54
H       0.91      22.12      23.59
H       3.19      23.78      20.28
H       1.97      22.11      19.21
H       1.97      20.63      21.91
H       3.19      36.58      18.33
H       0.91      38.61      21.42
H       0.91      32.62      19.70
H       3.19      34.65      22.79
H       1.97      36.41      21.88
H       1.97      34.82      19.25
H       0.58      12.32      13.86
H       3.32      15.91      13.66
H       3.32      12.58       2.78
H       0.58      16.17       2.58
H       0.58      17.45      16.07
H       3.32      15.82      19.28
H       3.32      26.91      21.84
H       0.58      11.04       0.37
H       0.58      12.97      19.41
H       3.32      11.00      16.40
H       3.32      17.49       0.05
H       0.58      29.77      21.71
C       1.95      30.25      23.54
C       1.95      14.35       2.09
C       1.95      26.63      23.71
C       1.95      14.15      14.36
C       1.95      16.11      17.41
C       1.95      12.48      17.58
C       1.96      14.06      12.92
C       2.65      15.03      12.13
C       2.64      14.94      10.74
C       2.03      13.85      10.11
C       1.40      12.85      10.87
C       1.31      12.97      12.25
C       2.03      13.72       8.65
C       2.04      14.77       7.79
C       1.40      15.64       5.58
C       2.03      14.64       6.34
C       2.64      13.55       5.71
C       2.65      13.46       4.32
C       1.96      14.44       3.53
C       1.31      15.52       4.20
C       1.96      17.40      18.05
C       2.65      17.60      19.29
C       2.64      18.84      19.91
C       2.03      19.94      19.28
C       1.40      19.78      18.03
C       1.31      18.52      17.45
C       2.04      21.26      19.89
C       2.04      21.48      21.23
C       1.40      22.96      23.09
C       2.03      22.80      21.85
C       2.64      23.90      21.22
C       2.65      25.14      21.83
C       1.96      25.34      23.07
C       1.31      24.22      23.67
C       1.96      11.28      18.38
C       2.65      38.60      17.93
C       2.64      37.44      18.70
C       2.03      37.44      19.96
C       1.40      38.60      20.45
C       1.31      39.73      19.65
C       2.04      36.25      20.80
C       2.04      34.98      20.32
C       1.40      32.63      20.67
C       2.03      33.78      21.16
C       2.64      33.78      22.42
C       2.65      32.63      23.19
C       1.96      31.45      22.74
C       1.31      31.49      21.47
O       1.02      26.89      24.59
O       1.02      29.36      23.33
O       1.02      14.97       1.42
O       2.86      27.51      23.41
O       2.86      13.64       1.48
O       2.86      30.08      24.45
O       1.02      13.38      17.79
O       1.02      13.52      15.03
O       1.02      15.84      16.53
O       2.86      12.66      16.67
O       2.86      15.23      17.71
O       2.86      14.85      14.97
O       0.63      12.02      12.92
O       3.31      16.07      12.69
O       3.31      12.42       3.76
O       0.63      16.47       3.53
O       0.63      18.41      16.29
O       3.31      16.59      19.91
O       3.31      26.15      21.21
O       0.63      10.08       0.16
O       0.63      12.30      20.14
O       3.31      10.08      16.75
O       3.31      32.66      24.37
O       0.63      30.43      20.98
