60

Zn       7.15       4.99       7.38
Zn       0.15       5.09       6.81
H       2.17       2.70       1.19
H       0.27       5.61       2.47
H       5.77       4.92      12.26
H      -1.66       2.16      13.48
H       7.43       3.15      11.28
H       1.61       4.81      10.85
H       4.35       3.10       2.14
H       3.49       4.65      11.39
H       9.46       5.89       0.04
H       0.77       0.76       7.03
H       7.45       0.50       6.67
H       0.56       9.42       6.61
H       7.39       9.50       7.64
H       4.97       3.33       6.17
H       4.62       5.96       7.44
H       2.67       3.94       5.23
H       2.56       5.40       7.77
C       8.40       7.62       7.20
C      -0.73       4.63       9.63
C       8.42       2.44       6.92
C       8.32       5.04       4.45
C      -0.36       4.05      10.96
C       8.00       4.99       2.98
C      -0.94       2.74      12.90
C      -1.30       3.29      11.69
C       0.93       4.22      11.45
C       1.33       3.68      12.69
C       0.36       2.93      13.44
C       2.66       3.86      13.23
C       5.10       4.38       0.53
C       4.12       3.59       1.20
C       2.88       3.34       0.66
C       3.70       4.40      12.43
C       4.97       4.56      12.91
C       7.41       5.26       0.24
C       6.39       4.74       1.11
C       8.70       5.54       0.74
C       9.00       5.39       2.07
C       6.74       4.68       2.48
C      -0.18       0.23       6.93
C       8.42       0.96       6.83
C      -0.37       9.90       6.91
C       8.33       9.10       7.26
C       4.45       4.24       6.52
C       3.02       4.41       6.15
N       5.12       5.08       7.20
N       2.18       5.03       6.89
N       5.71       4.28       3.47
O       7.35       7.00       7.58
O      -0.25       7.08       6.78
O       7.77       4.56       9.29
O       0.21       5.13       8.92
O       7.26       2.99       6.96
O      -0.20       3.06       6.98
O       7.35       5.25       5.25
O      -0.19       4.90       4.78
O       4.80       5.08       3.72
O       5.80       3.14       3.95
