152

Al       5.20       8.29      20.16
Al       1.46      19.44       6.76
Al       1.85       8.29      20.22
Al       4.81      19.39       6.70
H       1.72      15.57       1.25
H       4.96      12.15      25.65
H       5.07      23.26      12.21
H       1.61       4.43      14.73
H       4.65      14.12       2.78
H       2.00      13.65      24.09
H       1.30      24.71      10.68
H       5.35       2.93      16.28
H       4.64      15.98       4.41
H       2.01      11.81      22.43
H       1.29      22.85       9.05
H       5.36       4.77      17.94
H       4.48      13.41       0.67
H       2.20      14.32      26.23
H       1.13      25.42      12.79
H       5.54       2.26      14.15
H       4.59      14.30      25.96
H       2.08      13.43       0.94
H       1.25       2.28      14.41
H       5.43      25.40      12.52
H       1.90      11.70      14.40
H       4.66      14.50      11.21
H       5.25       4.88      25.97
H       1.31      24.33       2.25
H       2.02      10.09      16.31
H       4.62      16.11       9.32
H       5.37       6.49      24.07
H       1.27      22.72       4.14
H       4.93      13.31      16.02
H       1.73      16.17      12.50
H       1.58       3.27      24.36
H       5.08      22.66       0.96
H       4.75      12.03      20.12
H       2.25      19.95      10.85
H       1.40       4.55      20.25
H       5.59      18.88       2.61
H       3.47       9.83      19.40
H       3.12      17.83       7.40
H       0.12       6.75      20.98
H       6.47      21.00       6.06
C       3.56       6.81      22.08
C       3.13      20.90       4.82
C       0.21       9.77      18.29
C       6.48      17.93       8.64
C       3.50       6.55      18.49
C       3.17      21.09       8.48
C       0.15      10.03      21.89
C       6.52      17.74       4.98
C       0.91      16.64       2.92
C       5.76      11.12      23.95
C       4.26      22.19      10.54
C       2.41       5.46      16.42
C       0.91      15.62       1.97
C       5.77      12.12      24.92
C       4.26      23.21      11.49
C       2.42       4.46      15.46
C       6.56      14.68       1.91
C       0.11      13.07      24.98
C       3.21      24.15      11.55
C       3.46       3.51      15.39
C       5.48      14.83       2.79
C       1.18      12.93      24.08
C       2.13      24.00      10.67
C       4.53       3.65      16.30
C       5.47      15.86       3.72
C       1.18      11.92      23.13
C       2.13      22.97       9.73
C       4.53       4.67      17.24
C       6.55      16.76       3.84
C       0.12      11.01      23.02
C       3.20      22.07       9.62
C       3.46       5.57      17.35
C       5.45      13.00       0.39
C       1.22      14.73      26.51
C       2.10      25.83      13.07
C       4.57       1.85      13.87
C       5.52      14.69      26.39
C       1.16      13.04       0.51
C       2.17       1.89      13.99
C       4.51      25.79      12.95
C       0.05      14.16      25.97
C       6.62      13.57       0.93
C       3.40       2.42      14.41
C       3.27      25.26      12.53
C       1.12      11.69      15.17
C       5.48      15.21      11.07
C       4.47       4.89      25.20
C       2.13      23.62       2.39
C       1.19      10.79      16.23
C       5.45      16.11      10.01
C       4.54       5.79      24.14
C       2.10      22.72       3.45
C       0.20      10.79      17.21
C       6.48      17.04       9.83
C       3.55       5.80      23.16
C       3.14      21.79       3.63
C       5.84      11.71      17.14
C       0.85      17.06      10.75
C       2.49       4.87      23.24
C       4.20      21.77       2.71
C       5.75      12.60      16.07
C       0.90      16.14      11.80
C       2.40       3.98      24.31
C       4.25      22.69       1.66
C       0.05      12.59      15.07
C       6.56      15.21      11.97
C       3.39       3.99      25.31
C       3.21      23.62       1.49
C       6.67      13.50      13.98
C       6.61      14.29      13.05
C       3.32       3.08      26.39
C       3.26      24.54       0.41
C       4.83      11.79      18.24
C       1.95      18.08      10.68
C       1.48       4.80      22.13
C       5.30      20.75       2.77
Br       2.36      17.86       2.81
Br       4.29       9.91      24.04
Br       5.71      20.97      10.64
Br       0.94       6.67      16.34
O       2.38       6.90      18.99
O       4.28      20.73       7.99
O       5.73       9.69      21.39
O       0.93      18.10       5.47
O       4.68       7.21      21.64
O       2.01      20.63       5.35
O       1.33       9.38      18.73
O       5.36      18.20       8.10
O       4.65       6.92      18.89
O       2.01      20.75       8.07
O       1.30       9.66      21.49
O       5.36      18.08       5.38
O       5.77       9.36      18.69
O       0.92      18.33       8.22
O       2.42       7.22      21.68
O       4.26      20.50       5.24
O       3.52       9.11      20.05
O       3.13      18.60       6.81
O       0.17       7.47      20.32
O       6.48      20.23       6.65
O       3.63      11.59      18.12
O       5.42      12.13      19.42
O       3.13      17.82      10.50
O       1.49      19.33      10.95
O       0.28       4.99      22.25
O       2.07       4.45      20.96
O       6.48      21.01       2.96
O       4.84      19.50       2.50
