50

Al       5.94       8.03       7.21
Al       9.24       8.03       7.21
H       4.32       9.42       6.13
H       7.56       6.65       8.29
H       3.11       7.36       3.31
H       3.24       6.74       0.93
H       8.77       8.71      11.12
H       8.64       9.32      13.50
H       6.38       9.53      11.11
H       6.29      10.16      13.48
H       5.50       6.53       3.32
H       5.60       5.90       0.95
H       7.53       3.44       7.97
H       4.35      12.63       6.46
C       7.61      10.42       7.00
C       7.53       7.41       4.89
C       4.27       5.65       7.43
C       4.35       8.66       9.54
C       7.59       7.00       3.46
C       4.29       9.07      10.97
C       2.22       7.04       2.77
C       2.28       6.69       1.43
C       9.67       9.03      11.66
C       9.61       9.38      13.00
C       5.44       9.49      11.65
C       5.37       9.84      12.99
C       6.44       6.58       2.78
C       6.51       6.22       1.44
C       7.72       6.28       0.72
C       4.16       9.79      13.71
C       5.63       3.48       7.64
C       6.25      12.58       6.79
C       4.45       4.20       7.39
C       7.43      11.87       7.03
C       6.45      13.98       7.01
C       5.43       2.09       7.42
S       3.14       3.18       6.86
S       8.74      12.89       7.57
O       6.58       9.74       6.69
O       8.60       7.86       5.41
O       3.12       6.13       7.16
O       5.48       8.76       8.95
O       5.30       6.33       7.74
O       3.28       8.21       9.02
O       8.76       9.94       7.27
O       6.40       7.31       5.48
O       4.29       8.53       6.52
O       7.59       7.54       7.91
O       6.78       4.06       8.05
O       5.10      12.01       6.38
