60

Al       5.69       7.60       8.05
Al       2.35       7.61       8.03
H       4.04       8.84       6.75
H       7.37       6.96       9.68
H       8.76       7.84      12.08
H       8.50       8.62      14.45
H       5.59      10.69      14.11
H       5.73       4.65       1.94
H       2.85       6.65       1.65
H       2.61       7.38       4.04
H       5.28      11.49       7.23
H       6.07       3.75       8.80
H       6.77      10.83      12.17
H       5.94      10.59      10.62
H       6.89       9.28      11.30
H       4.48       6.01       4.83
H       5.39       4.63       5.41
H       4.52       4.52       3.86
H       1.59       4.43       7.43
H       1.00       2.82       7.11
H       9.69      10.78       8.76
H      10.22      12.32       9.32
C       7.37      10.03       7.85
C       7.31       6.96       5.72
C       3.99       5.20       8.20
C       4.05       8.26      10.38
C       3.99       8.80      11.77
C       2.86       8.46      12.54
C       9.37       8.89      13.85
C       3.72       9.69      14.41
C       4.84      10.05      13.64
C       5.00       9.63      12.32
C       6.49       5.26       2.42
C       7.61       5.62       1.66
C       1.98       6.39       2.24
C       8.50       6.79       3.56
C       7.36       6.45       4.32
C       6.33       5.66       3.75
C       4.06       3.73       8.09
C       7.30      11.51       7.92
C       2.97       2.94       7.62
C       8.40      12.31       8.37
C       6.10      12.13       7.57
C       5.26       3.11       8.45
C       6.21      10.11      11.57
C       5.11       5.18       4.50
N       3.72      10.18      15.74
N       7.62       5.14       0.33
N       1.78       3.46       7.18
N       9.65      11.79       8.68
O       6.28       9.39       7.65
O       8.41       7.36       6.24
O       2.85       5.77       8.04
O       5.19       8.19       9.82
O       5.07       5.84       8.44
O       2.95       7.88       9.85
O       8.51       9.47       8.00
O       6.18       6.98       6.31
O       4.02       8.10       7.38
O       7.36       7.13       8.73
