104

Al       4.94       5.17       6.01
Al       0.07      15.38      17.70
Al       1.59       5.17       5.98
Al       3.43      15.38      17.72
H       0.50       8.47      12.83
H       4.52      12.09      10.88
H       4.54       9.14      13.58
H       0.47      11.41      10.12
H       0.45      11.78      23.14
H       4.57       8.78       0.56
H       0.81       0.99      10.82
H       4.20      19.57      12.88
H      -0.08      20.00      12.65
H       5.09       0.55      11.06
H       1.44       1.49       0.53
H       3.57      19.07      23.18
H       3.27       6.93       5.88
H       1.75      13.62      17.82
H      -0.09       3.44       5.73
H       5.11      17.12      17.97
C       3.26       3.57       7.79
C       1.75      16.99      15.92
C       3.27       3.57       4.18
C       1.75      16.98      19.52
C      -0.11       6.78       4.18
C       5.12      13.78      19.52
C      -0.08       6.76       7.80
C       5.09      13.79      15.90
C       5.14       9.63      12.81
C      -0.12      10.92      10.89
C      -0.11       9.27      12.40
C       5.12      11.28      11.30
C      -0.11       7.68       8.91
C       5.12      12.88      14.79
C       4.75       9.77      11.30
C       0.27      10.79      12.40
C      -0.49       9.38      10.87
C       5.50      11.17      12.83
C      -0.20       8.47       9.84
C       5.21      12.09      13.87
C       0.87      10.33       0.72
C       4.15      10.22      22.98
C      -0.15       9.41       1.08
C       5.16      11.14      22.63
C       5.38       9.46       0.32
C      -0.37      11.10      23.39
C      -0.07       8.50       2.15
C       5.08      12.06      21.56
C       5.12      12.86      20.64
C      -0.11       7.70       3.06
C       0.91      20.28      12.29
C       4.10       0.27      11.41
C       2.04      19.68      12.88
C       2.97       0.88      10.82
C       3.33      20.04      12.42
C       1.68       0.52      11.28
C       1.90      18.73      13.92
C       3.11       1.82       9.78
C       3.22       2.63       8.88
C       1.80      17.92      14.82
C       0.50      20.49      22.96
C       4.52       0.06       0.74
C       1.56      19.62      22.62
C       3.45       0.94       1.08
C       2.72      19.71      23.41
C       2.29       0.85       0.30
C       1.56      18.70      21.54
C       3.46       1.85       2.16
C       3.32       2.65       3.07
C       1.70      17.91      20.63
I       1.95      11.66      13.34
I       3.07       8.89      10.36
N       2.16      10.34       1.43
N       2.85      10.21      22.28
N      -0.78      20.44      22.23
N       5.80       0.11       1.48
O       2.12       3.94       4.57
O       2.90      16.61      19.13
O       4.41       3.94       7.39
O       0.60      16.61      16.32
O       5.50       6.42       7.34
O      -0.48      14.14      16.36
O       4.40       3.91       4.65
O       0.61      16.65      19.05
O       5.47       6.41       4.61
O      -0.45      14.14      19.09
O       2.13       3.91       7.31
O       2.88      16.64      16.39
O       3.26       5.97       5.98
O       1.75      14.59      17.73
O       1.04       6.44       4.62
O       3.98      14.11      19.08
O       1.06       6.40       7.37
O       3.95      14.16      16.34
O      -0.09       4.38       5.97
O       5.11      16.18      17.73
O       2.51       9.31       2.01
O       2.84      11.39       1.36
O       2.51      11.24      21.69
O       2.18       9.17      22.34
O      -1.07      19.40      21.63
O      -0.89       0.75      22.28
O       6.09       1.16       2.07
O       5.90      19.80       1.42
