234

Al      11.96       9.27      17.40
Al      13.83       6.69      17.32
Al      15.14       9.38      17.34
Al       4.88       3.30       0.10
Al       6.77       5.81      34.67
Al       8.07       3.16       0.07
H      14.75       5.78      20.86
H      10.14       8.49      13.90
H      15.93      11.46      13.92
H      15.33       5.17      13.86
H      15.39       5.14      23.19
H      15.90      11.64      23.22
H       9.66       8.08      23.07
H       8.41       7.38       5.88
H       9.14       0.21       5.65
H      16.01       5.00       5.41
H       4.83       7.57      22.83
H      15.80      11.08      20.79
H       4.74       0.07      23.12
H      11.32       4.12      23.04
H      11.94       4.96       5.42
H      11.87      12.01       5.81
H       4.70       8.25       5.88
H       2.85       3.95      28.77
H       8.90       0.36      29.01
H       8.70       7.51      28.81
H       9.83       8.40      11.41
H      16.09      11.56      11.42
H      10.39       8.37      20.69
H      15.60       5.04      11.37
H       5.81       7.27      31.00
H       4.58       1.45      31.24
H       9.90       3.28      31.14
H      12.87       5.19      13.69
H      11.76      10.47      13.63
H      17.08       9.09      13.86
H       5.51       7.32      28.51
H       4.63       0.91      28.79
H      10.22       3.49      28.66
H       7.73       6.78       3.56
H      12.61       5.12      11.19
H      11.92      10.53      11.12
H      17.37       8.97      11.37
H       5.35       8.35      20.82
H      18.15      10.37      21.25
H      17.23       9.98      19.76
H      18.97      10.35      19.66
H       3.69       0.17      21.18
H       3.57       1.06      19.11
H      10.83      11.88      18.55
H       8.83       1.39       3.48
H       5.22       0.52      18.74
H      12.19       3.31      21.24
H      11.50       2.53      19.26
H      12.68       3.68      18.57
H      10.99       4.16      18.76
H      12.44       4.21       3.39
H      11.21       2.17       3.78
H      11.89       2.26       2.13
H      10.17       2.62       2.39
H       3.64       0.19       4.20
H       2.73       4.71       3.05
H       3.45       2.52       4.72
H       2.71       2.17       3.12
H       4.32       2.88       3.20
H       6.01       8.80       4.27
H      19.21      10.08       2.57
H      18.89       8.62       1.60
H       6.46       9.21       1.77
H       3.19       3.88      31.26
H       8.83       0.91      31.46
H       8.38       7.30      31.29
H       9.79       9.89      16.74
H       3.27       1.68       0.59
C      13.71      10.83      19.25
C      10.64       6.53       7.16
C      11.17       2.72       2.82
C       3.65       2.18       3.69
C       5.50       9.09       2.29
C      14.12      11.59       7.15
C      17.01       6.80       7.21
C       3.49       4.68      29.27
C       7.96       0.60      29.51
C       8.97       6.60      29.33
C      10.49       7.70      11.92
C      15.14      11.33      11.91
C      15.94       5.92      11.92
C       3.67       4.64      30.64
C      11.80       6.83      19.20
C       7.92       0.89      30.87
C       8.80       6.48      30.70
C      10.65       7.74      13.30
C      15.05      11.28      13.30
C      15.79       5.99      13.30
C       5.16       6.55      30.50
C       5.51       1.20      30.74
C       9.66       4.21      30.62
C      12.21       5.88      13.18
C      12.70      10.72      13.13
C      15.92       7.36      19.18
C      16.79       8.20      13.30
C       4.99       6.59      29.12
C       5.54       0.91      29.39
C       9.84       4.32      29.25
C      12.06       5.84      11.79
C      12.79      10.75      11.74
C      16.94       8.13      11.93
C       4.16       5.64      28.49
C       6.77       0.61      28.76
C       9.48       5.51      28.59
C       6.67       1.83       2.09
C      11.21       6.77      11.15
C      14.02      11.04      11.12
C      16.50       7.00      11.22
C       4.52       5.57      31.27
C       6.70       1.21      31.49
C       9.12       5.28      31.35
C      11.53       6.85      13.93
C      13.84      10.95      13.91
C      16.19       7.14      14.00
C      13.77      10.69      15.38
C       4.73       5.79       1.85
C      11.84       7.05      15.38
C      15.82       7.32      15.43
C       6.65       1.67      32.90
C       4.82       5.42      32.72
C       8.75       5.07      32.78
C      16.44       7.06      20.54
C      13.72      11.51      20.56
C      11.25       6.42      20.51
C       9.42       5.51       3.18
C       6.70       1.17       3.42
C       8.88       5.24       1.83
C       4.16       6.29       3.13
C      15.66       6.18      21.31
C      14.92      11.44      21.31
C      10.57       7.43      21.22
C       8.65       6.38       3.98
C       7.97       0.98       4.01
C       3.14       5.49       3.69
C      16.02       5.81      22.60
C      14.98      11.73      22.66
C      10.18       7.29      22.54
C       3.53       5.96      24.51
C       9.03       6.72       5.27
C       8.16       0.32       5.21
C      16.80       5.64       4.99
C      17.21       6.31      23.14
C      13.78      12.09      23.32
C      10.49       6.08      23.20
C      10.23       6.22       5.79
C      14.00      12.25       5.84
C      17.40       6.62       5.80
C      18.00       7.18      22.38
C      13.78      12.34      24.77
C      12.60      12.24      22.60
C      11.14       5.06      22.52
C      11.01       5.36       5.00
C      12.74      12.42       5.28
C       4.28       7.46       5.25
C      17.64       7.60      21.09
C      12.55      12.02      21.20
C      11.50       5.17      21.16
C      10.63       4.96       3.71
C       5.55       0.67       4.11
C      10.08       5.88      24.60
C       4.70       7.36       3.91
C       4.01       5.65      27.03
C       6.79       0.32      27.31
C       9.61       5.62      27.13
C      11.10       6.78       9.69
C      14.12      11.04       9.66
C      16.59       6.97       9.75
C      18.19       9.87      20.27
C       4.25       0.21      19.16
C      11.80       3.59      19.22
N       3.07       4.86      26.46
N       9.96       7.49       7.83
N      15.31      11.62       7.79
N      16.23       5.85       7.79
N       4.65       6.52      25.01
N       5.63       0.17      25.35
N      10.27       4.66      25.16
N      11.75       5.93       7.67
N      13.07      10.89       7.64
N      17.37       7.95       7.83
N       4.91       6.35      26.29
N      14.93      12.46      26.74
N       5.62       0.41      26.64
N      10.03       4.53      26.44
N      11.98       6.06       8.96
N      13.07      10.61       8.92
N      17.17       8.03       9.13
N      18.52       8.44      20.39
N      11.39      12.34      20.56
N      12.07       4.06      20.57
N      11.51       4.14       2.98
N       4.24       0.83       3.68
N       9.20       6.76      26.52
N       5.66       8.26       3.48
N      10.19       7.61       9.12
N      15.31      11.34       9.08
N      16.01       5.94       9.08
N       2.83       5.00      25.17
N      14.95      12.22      25.44
N       9.44       6.89      25.23
O      11.42       7.94      18.72
O       5.57       2.14       1.55
O       5.60       6.52       1.23
O       9.18       4.15       1.23
O      11.38       8.10      15.92
O      15.13       6.39      15.98
O      14.91      10.63      16.00
O       4.32       4.43      33.32
O       8.14       6.03      33.38
O       7.78       1.74      33.55
O      12.65      10.45      15.91
O      15.19       6.47      18.63
O      12.62       6.20      15.96
O      16.12       8.42      16.00
O       5.54       2.03      33.37
O       5.63       6.27      33.25
O       8.99       3.93      33.29
O      13.66       8.44      17.31
O       6.59       4.11       0.04
O      14.85      10.65      18.66
O       4.39       4.64       1.47
O       8.08       6.12       1.34
O       7.82       2.05       1.53
O      12.61      10.37      18.82
O      12.71       6.08      18.65
O      16.18       8.49      18.64
O      10.41      10.12      17.44
O       3.29       2.54       0.14
