81

Zn       0.85      11.97       6.92
Zn       4.67       3.99       6.92
Zn       2.75       7.98       0.00
H       4.69       9.03       8.64
H       3.37      11.15       8.37
H       0.50       9.21       6.08
H       1.68       7.00       6.33
H       2.79       3.97       3.50
H       1.48      19.11       5.49
H       4.31       6.09       4.95
H       5.48       6.98       2.91
H       0.88      10.95       1.70
H       5.27      17.62      13.83
H       2.40       8.63       2.81
H       3.57       9.95       4.60
H       4.69      14.91       5.20
H       3.37      12.79       5.47
H       0.50      14.73       7.76
H       1.68      16.94       7.51
H       2.79      19.97      10.34
H       1.48       4.83       8.35
H       4.31      17.85       8.89
H       5.48      16.96      10.93
H       0.88      12.99      12.14
H       5.27       6.32       0.01
H       2.40      15.31      11.03
H       3.57      13.99       9.24
C       4.07       6.58       7.59
C       3.28       7.86       7.49
C       3.76       9.04       8.08
C       3.04      10.22       7.92
C       1.43       9.12       6.64
C       2.09       7.91       6.77
C       2.16       6.10       1.90
C       1.38       5.55       3.07
C       1.86       4.46       3.80
C       1.14       4.00       4.90
C       5.24       5.66       4.59
C       0.19       6.15       3.47
C       0.25      11.26       4.34
C       5.18      10.53       3.28
C       5.66      10.45       1.97
C       4.94       9.72       1.03
C       3.33       9.16       2.61
C       3.98       9.88       3.60
C       4.07      17.36       6.25
C       3.28      16.08       6.35
C       3.76      14.90       5.76
C       3.04      13.72       5.92
C       1.43      14.82       7.20
C       2.09      16.03       7.07
C       2.16      17.84      11.94
C       1.38      18.39      10.77
C       1.86      19.48      10.04
C       1.14      19.94       8.94
C       5.24      18.28       9.25
C       0.18      17.79      10.37
C       0.25      12.68       9.49
C       5.18      13.41      10.56
C       5.66      13.49      11.87
C       4.94      14.22      12.81
C       3.33      14.78      11.23
C       3.98      14.06      10.24
N       1.90      10.26       7.20
N       0.00       4.61       5.30
N       3.80       9.07       1.35
N       1.90      13.68       6.64
N       0.00      19.33       8.54
N       3.80      14.86      12.49
O       3.43       5.52       7.19
O       5.25       6.60       7.98
O       1.52       6.98       1.19
O       3.34       5.76       1.73
O       5.32      11.43       5.46
O       1.43      11.59       4.13
O       3.43      18.42       6.65
O       5.25      17.34       5.86
O       1.52      16.96      12.65
O       3.34      18.18      12.11
O       5.32      12.51       8.37
O       1.43      12.35       9.71
