55

Zn       4.39       5.87       7.09
Zn       7.12       5.88       7.17
H       3.49       5.84       0.39
H       9.49      11.31       8.28
H      10.36       2.39       7.90
H       1.51       1.07       7.10
H      10.19       2.15       6.14
H       3.15      11.25       5.66
H       3.32       9.72       6.59
H       3.66      10.03       3.55
H       3.80       8.51       4.45
H       1.39       8.71       5.18
H       1.51       8.74       3.41
H       9.68       5.87       8.07
H       1.24      10.25       4.31
H       7.95       6.19      13.82
H       4.64       1.38       7.25
H       7.57      10.14       7.86
H       2.11       4.50       5.61
H       1.84       6.75       7.46
H       9.34       5.13       5.25
H       9.24      11.15       6.51
C       5.86       8.48       6.87
C       5.62       3.30       7.24
C       5.87       5.75       4.48
C       5.85       5.69       3.04
C       5.61       5.62       0.43
C       5.85       6.41      13.79
C       5.73       6.35      12.39
C       5.74       5.66       1.82
C       9.12       0.72       7.34
C      10.30       1.64       7.10
C       3.64      10.26       5.69
C       5.65       6.28      11.17
C       3.29       9.48       4.43
C       1.78       9.28       4.32
C       6.71       1.01       7.31
C       5.62       1.85       7.27
C       6.83      10.72       7.31
C       5.89       9.98       6.66
C       1.61       5.26       6.23
C       9.86       5.36       6.19
C       5.67       6.16       9.74
N       2.35       6.03       6.93
N       9.16       5.71       7.20
O       4.75       7.89       6.70
O       5.05      10.57       5.77
O       6.96       7.93       7.19
O       4.56       6.30       9.11
O       6.81       5.92       9.22
O       4.47       3.88       7.37
O       6.72       3.93       7.07
O       4.73       5.59       5.05
O       6.98       5.97       5.06
O       7.95       1.55       7.43
