62

Zn       2.46       5.39       6.47
Zn       5.19       5.46       6.67
H       6.14       5.76       2.47
H       1.87       5.40       2.16
H       7.54       5.75       0.40
H       0.08       5.05      12.73
H       5.74       5.41      10.98
H       1.48       5.02      10.67
H       5.75       9.82       7.45
H       5.87       1.21       7.26
H       0.62       1.03       6.13
H       8.78       8.82       4.75
H       8.35      10.45       5.37
H       1.34       1.01       4.49
H       7.94       8.99       6.33
H       1.32       9.58       4.60
H       7.32       4.14       4.99
H       0.17       4.12       4.89
H       0.41       6.67       9.43
H       0.29       8.03       8.27
H       7.54       6.56       9.57
H       7.44       7.98       8.49
C       3.81       8.04       6.76
C       5.00       0.63       6.96
C       3.88       1.32       6.47
C       3.73       5.22       9.19
C       2.78       0.53       6.12
C       1.40       0.58       5.50
C       1.27      10.08       5.59
C       8.00       6.10       7.47
C       7.92       4.71       5.69
C      -0.36       4.70       5.64
C      -0.28       6.11       7.41
C       2.24       5.22      12.70
C      -0.14       7.06       8.56
C       7.95       7.03       8.66
C       3.86       2.81       6.39
C       3.89       5.60       3.94
C       4.01       5.58       2.45
C       3.61       5.23      10.69
C       4.69       5.43      12.85
C       4.78       5.36      11.48
C       2.37       5.15      11.29
C      -0.99       9.44       5.66
C       5.38       5.58       0.44
C       5.25       5.65       1.84
C       2.84       5.44       1.65
C       2.93       5.36       0.28
C       2.63      10.23       6.25
C       3.75       9.53       6.72
C       4.85      10.32       7.08
N       7.24       5.42       6.62
N       0.41       5.42       6.51
O       2.71       7.41       6.68
O       4.97       7.51       6.86
O       2.64       5.15       8.52
O       4.90       5.30       8.70
O       2.72       3.36       6.23
O       4.97       3.42       6.50
O       2.71       5.59       4.43
O       4.97       5.63       4.61
O       0.25       9.48       6.38
