138

Zr      14.11      -1.09       8.21
Zr      18.71      11.15       5.41
Zr      10.58      -1.06       8.26
Zr      22.23      11.11       5.37
Zr      12.32      -0.10       5.32
Zr      20.50      10.16       8.31
H      12.36       1.11       7.89
H      20.45      12.09       3.41
H      17.71      10.63       8.02
H      23.29      10.57       7.94
H      14.66       1.56      11.35
H      18.16       8.91       1.96
H      18.48       4.96       9.21
H      14.55       4.97       4.24
H      10.06       2.42       0.79
H      22.51       7.79      13.02
H      23.87      -1.25      12.83
H       9.22      11.47       1.02
H      23.61       3.22       9.20
H       8.95       6.68       4.23
H      13.35      10.53       4.33
H      19.47      -0.23       9.11
H      25.55       3.35      12.62
H      16.83       8.08       0.40
H      10.12       0.50      11.46
H      25.91       1.36      12.86
H      15.46       4.05      13.56
H      16.00       2.81      12.59
H      22.70       8.54       2.92
H       6.92       7.44       1.71
C      14.62       1.73       6.63
C      10.01      -0.82       3.18
C      18.32       8.26       6.90
C      22.68      10.96      10.54
C      12.46       0.48      10.48
C      16.79      -2.05       6.74
C      20.36       9.43       3.25
C       7.84      -2.03       6.77
C      10.01       1.74       6.77
C      10.14      -3.22      10.60
C      22.68       8.24       6.76
C      14.63      -0.95       3.14
C      17.75       5.86       7.70
C      15.27       4.08       5.76
C      17.64       6.96       6.85
C      15.37       2.99       6.62
C      16.15       5.13       6.15
C      16.89       4.81       7.30
C       9.35       0.70       1.20
C      23.24       9.49      12.60
C       9.26      -0.45       1.98
C      23.35      10.63      11.80
C      15.92      13.75       0.04
C       8.47       0.63       0.08
C       8.50      -2.80      12.56
C      24.57      13.01       1.28
C       9.44      -3.55      11.85
C      15.42      -0.57       1.96
C       8.61      13.72       0.16
C      16.29       0.67       0.01
C       8.26       3.42       7.66
C      24.33       6.49       5.79
C       9.23       2.97       6.76
C      23.38       6.95       6.71
C       8.36       5.20       6.13
C      24.21       4.70       7.30
C      11.43       1.74      12.42
C      13.83       1.84      12.00
C      14.05       2.64      13.10
C       4.76       7.22       0.23
C      21.40       7.96       1.46
C      18.99       8.37       1.50
C      18.77       7.55       0.43
C      28.06       2.71      13.48
C      12.55       1.35      11.66
C      20.27       8.57       2.07
C      13.71      11.68       5.81
C      19.11      -1.32       7.59
C       6.38      -1.99       6.70
C      18.25      -1.98       6.71
C      20.47      -1.54       7.25
C      12.35      11.94       6.13
S      16.49       6.71       5.56
S      16.53       3.23       7.90
S      16.28      12.71       1.37
S      16.31      -2.52      12.42
S      17.94       9.21      12.59
S      15.12       1.00       1.24
S       9.52       4.12       5.46
S      23.07       5.80       7.98
S       5.53      -1.06       7.92
S      10.83      11.44       5.47
N      25.62       3.22      13.63
N      10.19       1.22      12.18
N      15.39       3.05      13.38
N       6.19       8.07       2.02
O      14.92       0.92       7.58
O      17.90      12.34       3.68
O      17.99       9.08       5.97
O      14.82      -2.22      10.02
O      11.30       0.11      10.04
O      24.41      11.55       5.83
O      21.51       9.75       3.73
O       8.40      -1.37       7.71
O      10.85       1.57       5.82
O      19.14      10.21      10.15
O      21.86       8.42       7.73
O      13.78      -0.09       3.57
O       9.85      -2.10      10.06
O      22.97       9.08       5.84
O      23.03      12.20       3.62
O       9.79       0.93       7.74
O      13.57       0.14       9.92
O      16.61      11.56       5.88
O      19.25       9.87       3.74
O      16.21      -1.42       7.68
O      21.85      10.11      10.07
O      13.74       1.54       5.72
O      10.89      -0.01       3.62
O      19.15       8.47       7.84
O      22.49      11.02       7.62
O      18.51      11.07       7.69
O      20.47      12.14       4.37
O      12.35       0.19       7.57
O      10.86      -1.27       6.21
O      13.78      -1.30       6.17
O      20.48      10.47       6.27
O      12.34      -2.10       8.61
O      18.58       5.83       8.78
O      14.44       4.12       4.69
O      10.18       1.74       1.47
O      22.42       8.45      12.32
O      24.54      -1.56      12.19
O       8.52      11.76       1.64
O      24.31       2.71       8.75
O       8.29       7.21       4.71
O      14.13      10.90       4.79
O      18.69      -0.56       8.63
