296

Zn       4.69       5.44       0.17
Zn       1.29       5.44      18.56
Zn       7.27       3.58       0.17
Zn      10.67       3.58      18.56
Zn       7.27      12.60      18.56
Zn      10.67      12.60       0.17
Zn       4.69      14.47      18.56
Zn       1.29      14.47       0.17
H      10.44      13.82      14.90
H       6.45       8.88      17.34
H      10.46      12.00       4.35
H       7.71      10.64      16.14
H      10.51      11.94       6.79
H      10.09      12.48      11.16
H      10.89       7.82      15.39
H       9.60       6.06      16.58
H       9.37      12.02      16.19
H      10.07      12.50       8.71
H       0.21      10.90      12.25
H      11.07       9.09      13.52
H       8.97       1.70       0.00
H       7.50      13.82       3.83
H      11.49       8.88       1.38
H       7.49      12.00      14.38
H      10.23      10.64       2.59
H       7.44      11.94      11.93
H       7.86      12.48       7.57
H       7.05       7.82       3.34
H       8.34       6.06       2.15
H       8.57      12.02       2.54
H       7.87      12.50      10.02
H       5.77      10.90       6.48
H       6.87       9.09       5.21
H       1.52      13.25      14.90
H       5.51       0.14      17.34
H       1.51      15.07       4.35
H       4.25      16.43      16.14
H       1.46      15.13       6.79
H       1.88      14.59      11.16
H       1.07       1.21      15.39
H       2.36       2.96      16.58
H       2.59      15.05      16.19
H       1.89      14.57       8.71
H      11.75      16.17      12.25
H       0.89      17.98      13.52
H       2.99       7.33       0.00
H       4.46      13.25       3.83
H       0.47       0.14       1.38
H       4.47      15.07      14.38
H       1.73      16.43       2.59
H       4.52      15.13      11.93
H       4.10      14.59       7.57
H       4.91       1.21       3.34
H       3.62       2.96       2.15
H       3.39      15.05       2.54
H       4.09      14.57      10.02
H       6.19      16.17       6.48
H       5.09      17.98       5.21
H       1.52       4.23       3.83
H       5.51       9.16       1.38
H       1.51       6.05      14.38
H       4.25       7.41       2.59
H       1.46       6.11      11.93
H       1.88       5.56       7.57
H       1.07      10.23       3.34
H       2.36      11.98       2.15
H       2.59       6.03       2.54
H       1.89       5.55      10.02
H      11.75       7.15       6.48
H       0.89       8.96       5.21
H       2.99      16.35      18.73
H       4.46       4.23      14.90
H       0.47       9.16      17.34
H       4.47       6.05       4.35
H       1.73       7.41      16.14
H       4.52       6.11       6.79
H       4.10       5.56      11.16
H       4.91      10.23      15.39
H       3.62      11.98      16.58
H       3.39       6.03      16.19
H       4.09       5.55       8.71
H       6.19       7.15      12.25
H       5.09       8.96      13.52
H      10.44       4.79       3.83
H       6.45      17.91       1.38
H      10.46       2.98      14.38
H       7.71       1.61       2.59
H      10.51       2.91      11.93
H      10.09       3.46       7.57
H      10.89      16.84       3.34
H       9.60      15.09       2.15
H       9.37       3.00       2.54
H      10.07       3.48      10.02
H       0.21       1.88       6.48
H      11.07       0.06       5.21
H       8.97      10.72       0.00
H       7.50       4.79      14.90
H      11.49      17.91      17.34
H       7.49       2.98       4.35
H      10.23       1.61      16.14
H       7.44       2.91       6.79
H       7.86       3.46      11.16
H       7.05      16.84      15.39
H       8.34      15.09      16.58
H       8.57       3.00      16.19
H       7.87       3.48       8.71
H       5.77       1.88      12.25
H       6.87       0.06      13.52
C       7.18       6.32      17.75
C       7.95       7.37      17.04
C      10.57      12.78      14.60
C      11.36      12.48      13.47
C       7.42       8.66      16.92
C      11.12      12.67       4.89
C       8.14       9.64      16.24
C       9.40       9.36      15.67
C      10.12      10.41      14.94
C      11.14      12.66       6.27
C      10.91      12.94      10.61
C       9.91       8.05      15.80
C       9.20       7.07      16.47
C       9.97      11.76      15.32
C      10.92      12.94       9.23
C      11.55      11.14      13.11
C      10.93      10.12      13.83
C      10.76       6.32       0.98
C       9.99       7.37       1.69
C       7.37      12.78       4.13
C       6.58      12.48       5.26
C      10.52       8.66       1.81
C       6.82      12.67      13.84
C       9.80       9.64       2.49
C       8.55       9.36       3.06
C       7.82      10.41       3.79
C       6.80      12.66      12.45
C       7.03      12.94       8.12
C       8.03       8.05       2.93
C       8.74       7.07       2.26
C       7.97      11.76       3.41
C       7.02      12.94       9.50
C       6.40      11.14       5.62
C       7.01      10.12       4.90
C       4.78       2.70      17.75
C       4.01       1.66      17.04
C       1.39      14.29      14.60
C       0.60      14.59      13.47
C       4.54       0.36      16.92
C       0.84      14.40       4.89
C       3.82      17.43      16.24
C       2.57      17.71      15.67
C       1.84      16.65      14.94
C       0.82      14.41       6.27
C       1.05      14.13      10.61
C       2.05       0.97      15.80
C       2.76       1.95      16.47
C       1.99      15.31      15.32
C       1.04      14.13       9.23
C       0.41      15.93      13.11
C       1.03      16.95      13.83
C       1.20       2.70       0.98
C       1.97       1.66       1.69
C       4.59      14.29       4.13
C       5.38      14.59       5.26
C       1.44       0.36       1.81
C       5.14      14.40      13.84
C       2.16      17.43       2.49
C       3.42      17.71       3.06
C       4.14      16.65       3.79
C       5.16      14.41      12.45
C       4.93      14.13       8.12
C       3.93       0.97       2.93
C       3.22       1.95       2.26
C       3.99      15.31       3.41
C       4.94      14.13       9.50
C       5.57      15.93       5.62
C       4.95      16.95       4.90
C       4.78      11.72       0.98
C       4.01      10.68       1.69
C       1.39       5.26       4.13
C       0.60       5.56       5.26
C       4.54       9.39       1.81
C       0.84       5.38      13.84
C       3.82       8.41       2.49
C       2.57       8.69       3.06
C       1.84       7.63       3.79
C       0.82       5.39      12.45
C       1.05       5.11       8.12
C       2.05       9.99       2.93
C       2.76      10.98       2.26
C       1.99       6.28       3.41
C       1.04       5.11       9.50
C       0.41       6.91       5.62
C       1.03       7.92       4.90
C       1.20      11.72      17.75
C       1.97      10.68      17.04
C       4.59       5.26      14.60
C       5.38       5.56      13.47
C       1.44       9.39      16.92
C       5.14       5.38       4.89
C       2.16       8.41      16.24
C       3.42       8.69      15.67
C       4.14       7.63      14.94
C       5.16       5.39       6.27
C       4.93       5.11      10.61
C       3.93       9.99      15.80
C       3.22      10.98      16.47
C       3.99       6.28      15.32
C       4.94       5.11       9.23
C       5.57       6.91      13.11
C       4.95       7.92      13.83
C       7.18      15.34       0.98
C       7.95      16.39       1.69
C      10.57       3.76       4.13
C      11.36       3.46       5.26
C       7.42      17.68       1.81
C      11.12       3.65      13.84
C       8.14       0.62       2.49
C       9.40       0.34       3.06
C      10.12       1.39       3.79
C      11.14       3.63      12.45
C      10.91       3.91       8.12
C       9.91      17.08       2.93
C       9.20      16.09       2.26
C       9.97       2.74       3.41
C      10.92       3.92       9.50
C      11.55       2.12       5.62
C      10.93       1.10       4.90
C      10.76      15.34      17.75
C       9.99      16.39      17.04
C       7.37       3.76      14.60
C       6.58       3.46      13.47
C      10.52      17.68      16.92
C       6.82       3.65       4.89
C       9.80       0.62      16.24
C       8.55       0.34      15.67
C       7.82       1.39      14.94
C       6.80       3.63       6.27
C       7.03       3.91      10.61
C       8.03      17.08      15.80
C       8.74      16.09      16.47
C       7.97       2.74      15.32
C       7.02       3.92       9.23
C       6.40       2.12      13.11
C       7.01       1.10      13.83
C       0.00      13.53      11.34
C      11.96      13.53       7.01
C       0.00      13.53       2.69
C       0.00      13.53       8.49
C      11.96      13.53       4.17
C       5.98      13.53       7.39
C       5.98      13.53      11.72
C       5.98      13.53      16.04
C       5.98      13.53      10.24
C       5.98      13.53      14.56
C       0.00       4.51       7.39
C       0.00       4.51      11.72
C      11.96       4.51      16.04
C       0.00       4.51      10.24
C      11.96       4.51      14.56
C       5.98       4.51      11.34
C       5.98       4.51       7.01
C       5.98       4.51       2.69
C       5.98       4.51       8.49
C       5.98       4.51       4.17
N       0.00      13.53      12.74
N       5.98      13.53       5.99
N       0.00       4.51       5.99
N       5.98       4.51      12.74
O       6.07       6.67      18.28
O      11.00      12.94       2.10
O       7.67       5.14      17.78
O      11.87       6.67       0.45
O       6.95      12.94      16.63
O      10.27       5.14       0.95
O       5.89       2.35      18.28
O       0.97      14.13       2.10
O       4.29       3.88      17.78
O       0.09       2.35       0.45
O       5.01      14.13      16.63
O       1.69       3.88       0.95
O       5.89      11.37       0.45
O       0.97       5.11      16.63
O       4.29      12.91       0.95
O       0.09      11.37      18.28
O       5.01       5.11       2.10
O       1.69      12.91      17.78
O       6.07      15.70       0.45
O      11.00       3.91      16.63
O       7.67      14.16       0.95
O      11.87      15.70      18.28
O       6.95       3.91       2.10
O      10.27      14.16      17.78
O       2.99       6.36      18.73
O       8.97       2.67       0.00
O       8.97      11.69       0.00
O       2.99      15.38       0.00
