147

Al       0.07       6.97      12.09
Al       0.41      20.92      20.15
Al       4.01      20.93       4.02
H       2.10      12.87      22.30
H       2.40      37.04      20.15
H       2.06      12.87      18.01
H       1.30      14.77      22.12
H       3.17      14.67      18.22
H       3.19      39.64      23.85
H       1.31      36.31      21.83
H       1.36      36.32      18.43
H       3.09      11.74      16.52
H       2.10      12.87       1.88
H       2.02       9.15       4.02
H       2.17      12.86       6.17
H       2.99      14.75       2.07
H       1.11      14.70       5.97
H       1.23      11.76       0.33
H       3.12       8.42       2.34
H       3.09       8.42       5.74
H       1.09      11.73       7.66
H       2.32      23.07      12.08
H       2.42      26.79       9.94
H       2.32      26.79      14.23
H       1.46      22.30      13.81
H       3.35      25.70      15.72
H       3.14      22.28      10.32
H       1.27      25.72       8.50
H       1.38      28.64      10.17
H       3.38      28.64      13.99
C       2.37      32.81      12.09
C       2.10       8.00      13.87
C       2.10       8.00      10.31
C       2.43      18.87      20.15
C       2.44      21.95      21.93
C       2.44      21.95      18.38
C       1.98      21.95       2.24
C       1.98      18.88       4.04
C       1.98      21.96       5.80
C       2.32      38.81      21.38
C       2.10      12.32      21.36
C       2.14      13.04      20.16
C       2.11      12.33      18.95
C       2.09      10.92      18.94
C       2.35      38.13      20.16
C       1.88      16.65      21.27
C       1.77      15.26      21.26
C       2.22      14.52      20.16
C       2.77      15.21      19.07
C       2.82      16.60      19.07
C       2.39      17.36      20.17
C       2.73      38.66      23.85
C       2.51      24.02       0.87
C       2.02      22.71       0.94
C       1.70      36.08      23.92
C       1.73      36.78      22.72
C       2.27      38.08      22.66
C       1.82      36.79      17.57
C       1.83      36.09      16.36
C       2.10       8.75      15.17
C       2.63      10.06      15.29
C       2.63      10.75      16.49
C       2.09      10.19      17.66
C       2.11      10.92       2.80
C       2.10      12.32       2.82
C       2.09      13.04       4.02
C       2.10      12.32       5.23
C       2.09      10.92       5.24
C       2.08      10.24       4.02
C       2.49      16.64       2.93
C       2.55      15.25       2.93
C       2.06      14.52       4.03
C       1.54      15.23       5.12
C       1.54      16.62       5.12
C       2.00      17.37       4.03
C       1.69      10.77       0.33
C       1.91      24.02      23.31
C       2.41      22.71      23.23
C       2.72       8.20       0.25
C       2.70       8.89       1.45
C       2.16      10.19       1.52
C       2.63       8.89       6.61
C       2.63       8.20       7.82
C       2.09       8.75       9.01
C       1.56      10.05       8.89
C       1.55      10.75       7.68
C       2.09      10.18       6.52
C       2.31      24.84      10.86
C       2.34      24.16      12.09
C       2.38      24.84      13.31
C       2.37      26.25      13.29
C       2.38      26.96      12.08
C       2.37      26.24      10.88
C       1.95      22.10      15.89
C       1.91      22.80      14.68
C       2.40      24.11      14.59
C       2.92      24.70      15.75
C       2.90      24.01      16.96
C       2.43      22.70      17.06
C       2.67      22.78       9.48
C       2.55      22.09       8.28
C       2.04      22.70       7.12
C       1.61      24.03       7.24
C       1.67      24.71       8.45
C       2.23      24.11       9.58
C       1.84      29.16      11.01
C       1.84      30.55      11.01
C       2.37      31.31      12.09
C       2.91      30.55      13.16
C       2.92      29.16      13.15
C       2.38      28.44      12.08
Br       3.51      17.47      17.53
Br       1.32      17.58      22.82
Br       3.10      24.90       2.45
Br       1.03      34.31      23.91
Br       1.12      34.32      16.47
Br       3.33      11.04      13.81
Br       0.89      17.51       6.67
Br       3.09      17.56       1.38
Br       1.32      24.90      21.73
Br       3.39       6.42       0.26
Br       3.34       6.43       7.71
Br       0.86      11.03      10.36
Br       3.54      24.91      18.51
Br       1.34      20.31      15.91
Br       3.10      20.27       8.23
Br       0.91      24.94       5.73
Br       1.14      31.34       9.43
Br       3.61      31.34      14.74
O       1.14       8.21      11.11
O       1.40      33.39      11.51
O       1.40      35.09      13.65
O       3.07       7.20      10.53
O       3.07       8.21      13.07
O       3.33      33.40      12.67
O       1.48      22.18      19.17
O       1.48      19.46      19.55
O       1.48      21.14      21.72
O       3.41      21.16      18.58
O       3.41      22.17      21.15
O       3.41      19.43      20.73
O       1.01      21.18       5.60
O       1.01      22.17       3.02
O       1.01      19.45       3.45
O       2.93      22.19       4.99
O       2.94      19.46       4.63
O       2.94      21.14       2.45
