46

Al       1.33      11.76       6.86
H       3.11       7.50       1.86
H       3.14       5.33       5.60
H       4.05      13.86      13.02
H       3.51       9.57      13.04
H       3.43      16.04       1.88
H       4.05      18.16       5.60
C       3.33      13.55       5.85
C       3.31      10.01       5.80
C       3.33      11.73       8.91
C       2.60       3.90       0.95
C       2.94       5.01       2.91
C       2.63       2.76       2.91
C       3.26       8.67       3.66
C       3.16       7.49       2.94
C       3.11       6.28       3.65
C       3.17       6.27       5.05
C       3.24       7.48       5.72
C       3.28       8.71       5.06
C       3.86      12.93      12.50
C       3.67      12.92      11.13
C       3.44      11.74      10.40
C       3.39      10.55      11.14
C       3.56      10.51      12.51
C       3.81      11.71      13.20
C       3.50      16.05       2.97
C       3.33      14.88       3.69
C       3.43      14.83       5.09
C       3.70      16.05       5.74
C       3.86      17.24       5.06
C       3.76      17.24       3.66
N       2.83       5.07       1.57
N       2.86       3.87       3.63
N       2.48       2.72       1.58
O       4.24      11.09       8.30
O       4.24      13.33       6.72
O       4.25      10.82       5.55
O       2.37      12.36       8.37
O       2.37      10.19       6.64
O       2.37      12.77       5.59
F       3.28       7.47       7.07
F       3.27       9.84       2.97
F       3.73      14.09      10.45
F       3.15       9.40      10.47
F       3.09      13.73       3.02
F       3.78      16.06       7.09
