64

Al       9.44       5.46       8.57
Al       6.11       5.50       8.49
H       4.47       6.36      10.02
H       7.77       4.37       7.16
H       6.23       4.54       4.48
H       6.20       4.29       1.99
H       2.18       5.84       1.96
H       9.50       6.65      15.21
H       5.75       4.56      15.02
H       5.87       4.61      12.51
H       6.14       8.46       6.22
H       2.75       2.70       6.81
H       6.23       1.32       9.76
H       9.45       9.50       9.56
H       9.39       8.42       4.71
H       2.40       3.15       3.52
C       7.79       7.90       8.27
C       7.77       5.56      10.96
C       4.49       3.04       8.64
C       4.39       5.43       6.11
C       4.26       5.33       4.63
C       5.36       4.82       3.91
C       5.34       4.68       2.53
C       4.18       5.07       1.83
C       3.06       5.54       2.52
C       3.11       5.70       3.90
C       8.72       6.20      14.61
C       7.62       5.60      15.25
C       6.58       5.03      14.51
C       6.66       5.05      13.12
C       7.75       5.63      12.45
C       8.78       6.23      13.22
C       7.80       9.40       8.20
C       6.89      10.14       7.39
C       8.71      10.08       9.00
C       6.10       9.54       6.37
C       5.30      10.29       5.53
C       4.55       1.55       8.45
C       5.51       0.81       9.12
C       3.68       0.89       7.53
C       2.82       1.63       6.69
C       2.06       1.03       5.71
S       4.55       9.42       4.16
S       7.68       2.15       4.81
N       4.08       5.04       0.42
N       7.68       5.64      16.67
Cl       8.41       6.49       4.62
Cl      10.11       7.09      12.52
O       8.91       7.32       8.41
O       6.65       5.57      10.37
O       5.61       3.64       8.66
O       3.30       5.41       6.76
O       3.34       3.58       8.74
O       5.55       5.50       6.63
O       6.64       7.34       8.26
O       8.91       5.46      10.39
O       4.45       6.06       9.09
O       7.77       4.89       7.99
O       9.68       9.37       4.60
O       4.66      10.24       3.00
O       5.07       8.07       4.17
O       1.77       2.41       3.41
O       6.42       1.55       4.50
O       7.73       3.41       5.53
