118

Zn       8.86       8.09       5.90
Zn       9.07       9.31       8.82
H       7.50       1.56       4.05
H      10.64      15.90      10.68
H       6.86       9.77       1.67
H      11.00       7.66      13.06
H       9.20       4.55       6.96
H       9.02      12.91       7.77
H       9.63       5.44      11.11
H       8.33      12.00       3.66
H       6.50      11.89       1.49
H       5.05      10.94       1.94
H       3.58      12.70       0.90
H       4.63      13.41       2.15
H       5.03      13.64       0.43
H      12.81       6.42      12.82
H      11.36       5.49      13.29
H      12.81       3.77      14.41
H      13.23       3.93      12.69
H      14.26       4.69      13.94
H      12.02       7.00       4.42
H      12.00       5.39       3.60
H      12.13       4.25       5.83
H      13.49       5.39       5.65
H      12.09       5.84       6.65
H       6.58      12.33       8.59
H       7.15      13.37       9.92
H       5.45      12.30      11.45
H       4.66      12.97      10.01
H       4.94      11.21      10.12
H       8.74      14.21      11.01
H       9.05      14.50      12.74
H       6.70      15.36      13.02
H       7.60      16.31      11.81
H       6.39      15.10      11.29
H       9.05       2.90       2.43
H       9.64       3.52       4.00
H      11.95       2.71       3.46
H      10.78       1.37       3.39
H      11.37       2.11       1.88
C       8.54      10.91       6.18
C       9.48       6.55       8.61
C       9.05      14.66       6.47
C       9.13       2.80       8.25
C       8.68      15.10       5.16
C       9.46       2.35       9.57
C       9.43      15.64       7.47
C       8.77       1.82       7.25
C       8.09       2.16       6.02
C      10.09      15.30       8.71
C       7.98       1.26       4.99
C      10.18      16.20       9.74
C       8.49      11.92      12.19
C       9.49       5.57       2.48
C       8.47      11.21      10.98
C       9.49       6.23       3.71
C      10.25       9.86      11.66
C       7.70       7.57       3.08
C      10.09      10.23      13.02
C       7.85       7.23       1.70
C       9.30      11.42      13.25
C       8.65       6.06       1.45
C       6.49       8.27       7.79
C      11.46       9.01       6.85
C      10.67       9.51      14.13
C       7.26       7.94       0.60
C       6.72       9.24       0.74
C      11.18       8.19      13.99
C       9.41      12.03      14.55
C       8.49       5.41       0.17
C       5.04       8.28       7.74
C      12.90       8.91       6.87
C       3.83       8.36       7.57
C      14.12       8.76       7.00
C       2.50       8.48       7.38
C      15.44       8.61       7.18
C       8.64      12.35       5.77
C       9.44       5.10       8.99
C       8.48      14.11       4.14
C       9.59       3.33      10.60
C       8.48      12.76       4.43
C       9.55       4.68      10.33
C       8.93      13.29       6.76
C       9.24       4.17       7.98
C       5.45      11.67       1.21
C       4.62      12.93       1.17
C      12.40       5.72      13.56
C      13.23       4.45      13.66
C      11.76       5.94       4.52
C      12.40       5.31       5.74
C       6.69      12.40       9.68
C       5.36      12.20      10.37
C       8.27      14.28      12.01
C       7.17      15.32      12.03
C       9.93       3.29       2.96
C      11.08       2.32       2.92
I       8.17      14.70       2.13
I       9.87       2.72      12.62
I       6.94       3.92       5.73
I      11.23      13.53       9.03
I       5.89       8.41       3.79
I      12.06       9.00      10.96
N       9.42      10.26      10.71
N       8.55       7.15       4.02
O       8.47      10.03       5.27
O       9.41       7.41       9.54
O       8.53      10.71       7.43
O       9.56       6.79       7.37
O       7.04       7.75       6.76
O      10.95       9.46       7.92
O       7.04       8.78       8.80
O      10.87       8.64       5.79
O       8.81      13.24      14.72
O       9.03       4.17       0.05
O      10.30       5.89       4.73
O       7.64      11.34       9.95
O       7.66      13.00      12.33
O      10.34       4.51       2.30
