147

Cu       1.50       3.93       6.80
Cu      -4.50       0.00      13.60
Cu      -1.50      -3.93       6.80
H      -1.33       4.64       1.93
H       4.67      11.72       3.05
H       1.67       7.21       8.62
H       4.33       3.22      11.67
H      -1.67      -3.86      10.55
H       1.33       0.65       4.99
H       0.36       2.75       2.03
H      -2.64      12.58       1.37
H       3.36       8.24      10.21
H       2.64       5.11      11.58
H       5.64      -4.72      12.24
H      -0.36      -0.38       3.39
H      -0.12      -2.96      13.11
H       2.88      -2.02       4.49
H      -3.12       4.98       9.61
H       3.12      10.81       0.49
H       0.13       9.88       9.12
H       6.12       2.88       4.00
H       0.94      -0.09       9.97
H       3.94      -0.74       8.54
H      -2.06       0.83       8.70
H       2.06       7.95       3.63
H      -0.94       8.59       5.06
H       5.06       7.03       4.91
H       1.96       1.24       8.10
H       4.96       0.22      10.62
H      -1.04      -1.46       8.49
H       1.04       6.62       5.50
H      -1.96       7.63       2.98
H       4.04       9.31       5.12
H      -0.26       4.60       9.09
H       2.74      -2.31      13.04
H       5.74      -2.28       5.08
H       3.26       3.26       4.51
H       0.26      10.17       0.57
H      -2.74      10.14       8.52
H      -1.40       3.39      10.96
H       1.60      -3.33      11.06
H       4.60      -0.05       5.19
H       4.40       4.46       2.64
H       1.40      11.19       2.54
H      -1.60       7.91       8.42
C      -0.39       4.69       1.39
C      -3.39      12.17       3.37
C       2.61       6.71       8.85
C       3.39       3.17      12.22
C       6.39      -4.31      10.24
C       0.39       1.14       4.75
C       0.55       3.65       1.44
C      -2.45      12.64       2.44
C       3.55       7.28       9.73
C       2.45       4.21      12.17
C       5.45      -4.78      11.16
C      -0.55       0.58       3.88
C       1.93       4.82       0.05
C      -1.07      13.26       4.15
C      -4.07       5.49       9.41
C       1.07       3.04      13.56
C       4.07      -5.41       9.45
C       7.07       2.37       4.19
C      -2.01      -1.99      13.58
C       0.99      -2.91       5.09
C       3.99       4.91       8.54
C       5.01       9.85       0.02
C       2.01      10.77       8.52
C      -0.99       2.95       5.07
C      -1.80      -0.78      12.80
C       1.20      -2.84       6.53
C       4.20       3.62       7.88
C       4.80       8.64       0.80
C       1.80      10.70       7.08
C      -1.20       4.23       5.72
C      -1.09       0.77      11.57
C       1.91      -2.54       8.48
C       4.91       1.78       7.16
C       4.09       7.09       2.04
C       1.09      10.40       5.12
C      -1.91       6.07       6.44
C      -0.34       1.54      10.59
C       2.66      -2.09       9.64
C       5.66       0.55       6.98
C       3.34       6.32       3.01
C       0.34       9.95       3.96
C      -2.66       7.31       6.63
C       0.65       0.95       9.80
C       3.65      -1.11       9.52
C      -2.35       0.16       7.88
C       2.35       6.91       3.80
C      -0.65       8.96       4.08
C       5.35       7.70       5.72
C       1.22       1.68       8.77
C       4.22      -0.58      10.67
C      -1.78      -1.10       7.77
C       1.78       6.18       4.84
C      -1.22       8.44       2.93
C       4.78       8.96       5.84
C      -0.03       3.56       9.32
C       2.97      -1.99      12.02
C       5.97      -1.56       5.87
C       3.03       4.30       4.29
C       0.03       9.85       1.58
C      -2.97       9.42       7.74
C      -0.66       2.89      10.35
C       2.34      -2.55      10.93
C       5.34      -0.33       5.93
C       3.66       4.97       3.25
C       0.66      10.41       2.68
C      -2.34       8.19       7.68
N      -0.17       5.79       0.66
N      -3.17      12.25       4.68
N       2.83       5.53       8.27
N       3.17       2.07      12.95
N       6.17      -4.39       8.92
N       0.17       2.32       5.34
N       1.71       3.71       0.77
N      -1.29      13.19       2.83
N      -4.29       6.66      10.01
N       1.29       4.14      12.84
N       4.29      -5.33      10.77
N       7.29       1.19       3.60
N      -2.73       0.21      12.81
N       0.27      -3.35       7.38
N       3.28       3.14       7.02
N       5.73       7.65       0.79
N       2.73      11.20       6.22
N      -0.27       4.72       6.59
N      -2.29       1.21      12.04
N       0.71      -3.17       8.63
N       3.72       1.97       6.54
N       5.29       6.65       1.57
N       2.29      11.03       4.97
N      -0.71       5.89       7.06
N      -0.75      -0.47      12.01
N       2.25      -2.31       7.19
N       5.25       2.79       8.01
N       3.75       8.33       1.59
N       0.75      10.17       6.42
N      -2.25       5.07       5.60
N       0.87       2.96       8.52
N       3.87      -1.00      11.91
N       6.87      -1.96       6.79
N       2.13       4.90       5.09
N      -0.87       8.85       1.70
N      -3.87       9.81       6.82
