177

Zn      -4.48      10.42       1.69
Zn      -7.59      -1.03      15.17
Zn      -7.27       2.02      16.83
Zn       8.71      -1.96      16.52
H      12.88      12.92       1.59
H      11.15       2.11       8.15
H      17.88      -1.19       2.39
H      17.07       1.16       2.58
H       1.83       2.59       2.01
H      -7.60       3.95      14.03
H      10.16       0.12      12.67
H       7.28      -2.89      13.88
H      -5.61       9.22       4.69
H       1.99      11.79       3.77
H       0.93      13.05       4.47
H      -4.38      -2.12      15.28
H       2.06      13.46       3.14
H      14.73       1.40       0.47
H       8.15      -7.48      16.13
H       9.52      -8.52      15.72
H      10.13      -6.10      15.40
H      11.12      -6.84      16.67
H      15.18       3.73       1.46
H      14.21       4.48       0.18
H       4.45       9.87       4.81
H       5.65      10.49       5.97
H      -0.43       7.23       0.84
H       5.29       8.75       5.90
H       4.15       9.78       7.89
H       2.95       9.20       6.73
H       2.70      11.50       5.80
H       3.91      12.10       6.95
H      10.98      -3.20      10.50
H      11.44      -4.79      11.19
H      12.71      -3.58      10.79
H       8.85       7.50       6.61
H      10.35       7.62       5.63
H      -2.67       9.39       4.11
H       9.89       8.95       6.74
H       9.78       8.43      11.80
H       9.68       6.97      12.80
H      -8.10       7.96      12.82
H      -7.73       5.91      11.41
H      -7.65       7.37      10.41
H       9.23       7.01       9.71
H       9.15       5.56      10.72
H      13.60       2.26       6.69
H      13.83       3.78       5.75
H      13.72       5.73       2.13
H      13.50       2.24       4.89
H       3.88       1.73       2.69
H       3.68       1.82       0.91
H       4.84       0.65       1.62
H       3.67      -2.11      15.45
H       3.86      -3.22      16.85
H       4.34      -3.76      15.20
H       9.69      12.75       3.83
H      11.07      13.66       3.18
H       9.44      13.95       2.55
H       1.23      10.87       1.04
H      10.77      12.53       0.94
H       9.37      11.65       1.56
H      10.75      10.44       3.20
H      12.19      11.36       2.75
H      -6.93       8.00      16.79
H      -6.35       7.01      15.43
H      -7.52       8.31      15.14
H      -8.69       6.07      15.13
H      -9.27       7.09      16.45
H      -2.08      15.57       1.08
H       3.33      12.61       9.18
H      -7.15       4.89      16.74
H      -1.26      10.90       8.47
H      -0.70      12.05      10.60
C      -5.39      13.16       1.22
C      -2.07      10.10       3.55
C      13.82       6.71       2.57
C      10.46      -2.93      13.03
C       1.00      10.11       0.30
C      13.36       7.15       3.84
C      -3.81      -0.59      16.84
C      -0.88      10.75       3.94
C      -1.82       5.46       1.03
C       9.31       8.80       1.07
C       8.09       8.68       1.26
C       9.17      -3.48      12.78
C       6.76       8.58       1.26
C       5.53       8.54       1.10
C       4.23       8.59       0.78
C      -7.90       2.92      13.91
C       3.08       8.72       0.36
C       2.04      11.57       7.83
C       0.70      11.15       7.60
C      -0.25      11.27       8.64
C       0.06      11.91       9.83
C       1.34      12.47      10.01
C      10.76       2.29      12.79
C       2.33      12.22       9.03
C       0.25      10.77       6.31
C       8.51      -5.36      11.08
C       8.80      -4.48      11.88
C       5.86      -1.38      16.82
C      -0.26      10.70       5.20
C      10.37       5.35       8.98
C      10.58       3.96       9.14
C      11.04       3.19       8.05
C      11.41       3.80       6.86
C      10.66       8.95       0.78
C      11.34       5.21       6.73
C      10.75       5.96       7.78
C      10.45       3.35      10.41
C      11.97       5.85       5.64
C      12.63       6.44       4.80
C      10.58       0.96      13.21
C      10.52       2.85      11.52
C      -1.13       0.95       2.43
C      -0.23       2.03       2.26
C       1.15       1.76       2.11
C      13.77       8.50       3.89
C       1.60       0.45       2.01
C       0.68      -0.64       2.06
C      -0.67      -0.36       2.32
C      -0.72       3.34       2.08
C      -5.74      16.75       1.77
C      -5.32      15.66       1.42
C      11.56       9.93       1.31
C      -1.16       4.41       1.68
C       8.35      -2.79      13.71
C      -3.52      14.13       0.50
C      -4.59      -1.22      15.85
C      -4.80      14.42       1.05
C       1.40      12.69       3.55
C      15.23       4.16       0.45
C      10.09      -6.54      16.41
C       9.17      -7.75      16.42
C       3.12      11.35       6.81
C       3.74       9.95       6.88
C       4.84       9.75       5.83
C      11.69      -3.72      11.15
C       9.89       7.87       6.60
C      -0.57      11.56       2.82
C       9.82       6.18      10.11
C      -8.33       6.75      11.02
C      -8.90       7.57      12.17
C      13.28       2.82       5.79
C       3.87       1.15       1.76
C       4.29      -2.91      15.89
C      11.24      10.95       2.35
C      10.33      12.09       1.86
C      10.12      13.17       2.91
C      -2.41      15.07       0.16
C      16.14       5.34       0.46
C      -8.39       6.55      16.08
C      -7.24       7.52      15.84
C      -1.38       6.74       0.64
N      -4.52      12.20       0.84
N      -7.71       2.01      14.88
N       7.11      -0.87      16.81
N      11.06       0.80      14.46
N      12.77       9.79       0.76
N       9.08      -1.94      14.45
N      -3.38      12.80       0.39
N      14.41       8.80       2.75
N      -5.73      -0.53      15.68
N      -1.50      11.38       1.87
N      10.27      -3.15      16.72
N      -7.92      -2.27      16.82
N      -2.44      10.49       2.31
N      14.44       7.71       1.93
N      -5.74       0.53      16.55
N      10.39      -2.04      14.03
O       0.42      12.43       2.53
O      11.67      -3.15      12.48
O      10.63       7.33       7.71
O      11.87       3.04       5.80
O       2.91       0.10       1.81
O       5.65      -2.47      16.05
