91

Al       5.93      10.97       8.90
Al       2.60      10.99       8.85
Al       2.54      16.57       0.01
Al       5.93       5.38      17.70
H       2.64      15.53       4.02
H       1.75      14.76       6.58
H       2.90      13.83       5.62
H       2.57      13.25       2.95
H       5.52      13.65       3.17
H       5.54      15.26       3.89
H       5.91      14.40       6.05
H       5.38      12.87       5.35
H       1.08      12.68       2.16
H       0.32      11.57       4.08
H       2.22       9.54      12.74
H       2.28       8.03      11.85
H       2.28       8.39      14.77
H       4.41      10.62      13.52
H       4.55       9.36      15.47
H       6.01       7.79      11.71
H       4.52       7.03      11.14
H       4.37       5.77      13.10
H       5.93       6.43      13.61
H       5.95       9.94      13.00
H       2.21       6.88      13.88
H       1.14      16.12       4.76
H       6.03       8.57      14.90
H       2.69       9.45       5.06
H       4.29      12.47       8.02
H       0.95       9.26       9.30
H       4.23      15.01       0.73
H       0.95       7.06      17.22
C       4.26       9.70      10.92
C       4.27       9.08       7.35
C       0.90      12.26       6.81
C       0.95      12.86      10.39
C       0.96      13.96      11.32
C       0.97      14.92      12.08
C       0.98      15.98      12.91
C       1.00      16.95      13.67
C       1.03      18.00      14.50
C       1.04      18.96      15.26
C       1.67      15.21       4.44
C       1.88      14.24       5.62
C       1.49      13.13       3.08
C       6.08      14.30       3.86
C       0.84      14.51       3.34
C       0.87      13.08       5.53
C       1.21      12.19       4.28
C       6.13      13.66       5.27
C       2.78       8.60      12.64
C       2.78       7.81      13.98
C       4.94       9.67      13.34
C       4.97       7.56      11.99
C       4.22       8.90      12.21
C       4.21       7.49      14.41
C       4.99       8.81      14.62
C       4.92       6.70      13.28
C       4.28       8.01       6.38
C       4.24       7.07       5.59
C       4.20       6.03       4.75
C       4.16       5.05       3.99
C       4.13       3.99       3.17
C       4.10       3.02       2.43
C       4.09       1.91       1.51
C       4.25       6.68      15.69
C       1.04      20.06      16.20
C       0.87      15.30       2.04
C       2.37      11.24       4.51
O       3.12       9.53       7.65
O       5.41      10.04      10.48
O       6.48      12.46      10.00
O       5.40       9.44       7.81
O       6.45      11.91       7.32
O       3.16       9.97      10.35
O       4.27      11.76       8.68
O       2.04      12.00       7.32
O       2.09      12.43      10.03
O       0.94      10.19       9.02
O       5.39       6.39      16.17
O       2.94       1.48       1.16
O       2.01      15.59       1.56
O       3.13       6.35      16.21
O       2.18      20.46      16.60
O       5.23       1.49       1.14
O       4.21      15.79       0.16
O       6.57      20.51      16.53
O       6.42      15.58       1.50
O       0.94       6.16      17.58
O       3.56      11.53       4.43
O       1.92      10.00       4.82
