142

Zr      19.01      10.62       5.46
Zr       6.14      12.75       8.23
Zr      20.71      13.72       5.38
Zr       4.44       9.65       8.30
Zr      19.05      12.68       8.34
Zr       6.10      10.68       5.34
H      17.94      13.22       5.80
H       4.44      11.72      10.25
H       7.07      13.33       5.60
H       4.39       8.46       5.72
H      16.92      11.22       1.82
H       8.91      11.75      11.29
H      11.61       9.80       4.49
H      13.54      13.17       9.49
H      17.96      15.97      12.80
H       7.17       7.82       0.61
H      14.23       2.05       0.79
H      10.57      21.12      12.62
H      10.60       4.52       4.48
H      14.92      19.06       9.49
H       9.22      17.10       9.38
H      15.59       6.47       4.61
H       9.95       3.36       0.39
H      11.03       2.01       0.03
H      10.83      12.17      12.37
H       9.36       2.36       2.09
H      17.89      15.55       3.43
H      10.97       1.61       2.25
H      14.16      11.20       0.15
H      15.62      20.47      12.38
H      15.72      10.37       0.13
H      13.77      22.17      13.31
H       5.11       9.05      12.07
H      14.02      21.84      11.57
C      16.32      11.54       7.08
C      20.82      14.38      10.43
C       8.83      11.62       6.77
C       4.32       9.21       3.11
C      18.38      12.87       3.24
C       2.09       7.82       6.96
C       6.76      10.51      10.45
C      22.91      15.64       6.86
C      18.59      15.60       6.90
C      22.79      13.01       3.03
C       6.74       7.87       6.92
C       2.19      10.26      10.53
C      11.19      10.86       6.01
C      13.96      12.10       7.98
C      10.29      11.52       6.85
C      14.86      11.48       7.11
C      12.62      11.85       7.58
C      12.53      11.06       6.43
C      19.81      15.75      12.38
C       5.32       8.06       1.02
C      20.86      15.25      11.60
C       4.28       8.51       1.83
C       5.26      16.53      13.54
C      20.31      16.48      13.50
C      23.22      14.63       1.06
C       1.59       8.53      12.35
C      23.40      13.44       1.77
C      17.89       9.75      11.68
C       8.86      22.73      13.46
C      16.34       9.58      13.59
C      18.06      17.98       6.04
C       7.46       5.60       7.92
C      17.94      16.92       6.94
C       7.53       6.63       6.99
C      16.49      18.81       7.58
C       9.06       4.78       6.41
C      17.52      14.56       1.56
C      16.80      12.23       1.44
C      15.92      12.48       0.41
C      16.31      22.96      13.51
C       7.22       9.04      12.47
C       8.65      10.95      11.98
C       9.39      10.78      13.13
C       8.68       0.50       0.31
C      17.55      13.26       2.07
C       7.54      10.14      11.67
C       8.10      17.35       7.87
C      16.71       6.21       6.12
C      23.57      16.93       6.95
C      17.72       6.61       7.00
C      16.22       4.93       6.45
C       8.56      18.66       7.57
C      10.58      11.70      13.33
C      18.05      15.73       2.36
C      15.63      20.44      13.48
C       5.89       8.33      12.35
S      11.07      12.36       8.16
S      14.07      10.60       5.83
S       5.98      15.69      12.21
S      19.15       8.11       1.19
S       8.16      12.41       1.04
S      16.65      10.76      12.38
S      16.83      17.26       8.24
S       8.68       6.32       5.71
S      15.05       3.86       5.75
S       9.76      19.70       8.24
O      16.88      10.89       6.12
O       5.51      14.06       9.94
O       8.28      12.32       7.69
O      19.63       9.47       3.64
O      19.28      13.67       3.66
O       2.99       7.96       7.86
O       5.94       9.66       9.96
O      22.06      15.47       5.92
O      18.30      14.78       7.84
O       6.71      11.87       3.49
O       6.97       8.65       5.93
O      18.33      11.43      10.11
O      21.96      13.81       3.57
O       5.86       8.03       7.83
O       3.11       9.51      10.05
O      19.38      15.39       5.92
O      18.15      11.71       3.75
O       6.81      14.77       7.74
O       6.99      11.66       9.95
O      18.28       8.64       6.01
O       5.47       9.48       3.60
O      16.91      12.24       7.97
O      19.67      13.99      10.01
O       8.24      11.03       5.80
O       4.38       9.38       6.04
O       6.30      12.86       5.95
O       4.41      11.71       9.28
O      18.76      12.79       6.10
O      20.78      13.38       7.43
O      19.37      10.81       7.50
O       5.86      10.87       7.39
O      20.75      11.67       5.05
O      10.81      10.14       4.92
O      14.34      12.84       9.05
O      18.50      15.54      12.11
O       6.63       8.25       1.30
O      14.17       1.31       1.43
O      10.65      21.86      11.99
O      10.71       3.68       4.95
O      14.80      19.89       9.01
O       8.54      16.59       8.90
O      16.28       6.97       5.07
