140

Al       6.66       0.05      12.60
Al       3.32       0.09      12.56
Al       6.69      11.94      25.29
Al       3.37      11.90      25.31
H       1.64       1.75      13.07
H       5.01      22.23      13.16
H       1.61      10.29       0.30
H       4.94      13.62       0.47
H       2.97       9.90       3.51
H       3.09       8.38       5.50
H       0.41       9.01       2.59
H       3.05       2.58       9.23
H       0.54       3.16      10.16
H       0.62       5.11       8.59
H       6.28      13.96      21.86
H       6.20      15.50      19.89
H       3.77      14.91      22.45
H       6.31      21.51      15.99
H       3.73      20.58      15.04
H       3.68      18.69      16.68
H       3.70      13.89       3.45
H       3.75      15.34       5.49
H       6.23      14.90       2.84
H       3.79      21.32       9.34
H       6.35      20.52      10.34
H       6.34      18.58       8.77
H       3.05       8.56      22.97
H       3.15       6.60      21.41
H       0.49       9.48      22.07
H       2.98       3.09      15.57
H       0.46       2.01      16.03
H       0.60       3.43      18.09
H       0.73       6.55       5.28
H       1.53       7.29       3.94
H       3.06       5.12       6.59
H       2.16       3.85       7.31
H       3.78      17.47      19.83
H       4.69      16.76      21.12
H       6.10      18.99      18.63
H       5.28      20.29      17.85
H       6.16      17.29       5.61
H       5.27      16.64       4.28
H       3.89      18.74       6.75
H       4.76      20.03       7.48
H       0.76       6.87      19.52
H       1.56       8.20      20.27
H       3.07       5.46      18.35
H       2.13       4.87      17.03
C       4.98       1.67      14.43
C       5.06       1.67      10.79
C       1.76      22.16      10.89
C       1.68      22.23      14.40
C       5.08      10.26      23.56
C       4.95      10.39       1.72
C       1.61      13.53       1.76
C       1.73      13.47      23.46
C       5.01       9.51       2.92
C       3.88       9.35       3.74
C       3.95       8.50       4.84
C       5.13       7.78       5.13
C       6.29       7.97       4.32
C       6.20       8.85       3.23
C       5.17       6.83       6.17
C       5.27       5.95       7.02
C       5.23       4.90       7.96
C       4.02       4.17       8.13
C       3.98       3.13       9.06
C       5.12       2.77       9.78
C       6.33       3.46       9.59
C       6.37       4.53       8.71
C       1.69      14.37      22.28
C       0.49      14.53      21.56
C       0.45      15.39      20.47
C       1.59      16.15      20.11
C       2.81      15.97      20.82
C       2.84      15.06      21.89
C       1.54      17.11      19.07
C       1.62      18.00      18.23
C       1.64      19.04      17.29
C       0.48      19.85      17.10
C       0.53      20.89      16.16
C       1.69      21.15      15.43
C       2.84      20.37      15.63
C       2.80      19.32      16.54
C       1.64      14.35       3.01
C       2.82      14.45       3.76
C       2.85      15.26       4.89
C       1.72      16.01       5.27
C       0.50      15.87       4.54
C       0.49      15.02       3.42
C       1.76      16.94       6.33
C       1.70      17.82       7.19
C       1.71      18.87       8.13
C       2.90      19.65       8.28
C       2.89      20.72       9.19
C       1.74      21.03       9.92
C       0.57      20.27       9.76
C       0.57      19.19       8.89
C       5.10       9.13      22.59
C       3.96       8.33      22.41
C       4.02       7.25      21.55
C       5.20       6.96      20.82
C       6.35       7.77      21.00
C       6.28       8.85      21.90
C       5.23       5.90      19.88
C       5.30       5.03      19.02
C       5.23       4.12      17.95
C       3.99       4.01      17.25
C       3.92       3.18      16.12
C       5.05       2.50      15.67
C       6.26       2.58      16.38
C       6.34       3.37      17.52
N       0.79       7.32       4.63
N       2.90       4.53       7.41
N       3.93      16.67      20.44
N       6.00      19.57      17.81
N       6.04      16.54       4.94
N       4.03      19.33       7.56
N       0.85       7.48      20.33
N       2.88       4.71      17.69
O       6.09       1.40      13.87
O       3.91       1.36      11.26
O       2.88      22.72      11.13
O       0.55      22.73      14.10
O       0.64      22.48      11.42
O       2.80      22.54      13.87
O       3.83       1.30      14.02
O       6.17       1.15      11.13
O       1.66       0.90      12.60
O       5.04      23.05      12.65
O       6.19      10.81      23.85
O       3.80      10.80       1.35
O       2.73      13.25       1.22
O       0.61      13.20      24.00
O       0.46      13.17       1.32
O       2.87      13.06      23.87
O       3.95      10.58      24.07
O       6.06      10.65       1.14
O       1.70      11.10      25.33
O       5.02      12.75      25.35
