244

Zn      25.91       6.66      15.12
Zn      27.67       7.69      17.63
Zn      27.80       9.29      14.90
Zn      10.71       6.42      15.21
Zn      20.00      13.48       8.28
Zn      18.58      10.62       8.57
Zn      18.24      12.30       5.88
Zn      16.79      13.25       8.60
Zn      18.41       2.66      21.54
Zn      16.90       3.62      24.20
Zn      20.07       3.41      24.21
Zn      18.23       0.79      24.21
Zn      27.47      -0.52      30.59
Zn      20.11      14.21      30.89
Zn      35.37      13.93      30.74
Zn      18.32       0.09       1.93
H      20.25       8.32      11.79
H      21.16       7.74      10.38
H      22.92       6.77      11.93
H      22.00       7.36      13.33
H      16.63       4.49      18.06
H      15.81       2.90      18.07
H      14.03       3.81      16.53
H      14.85       5.39      16.51
H      21.15       2.81      18.10
H      20.24       4.35      17.99
H      22.03       5.29      16.47
H      22.93       3.76      16.58
H      13.72      13.12      11.58
H      12.84      12.47      10.17
H      11.08      11.52      11.72
H      11.96      12.17      13.12
H      25.77      15.39       5.41
H      15.79      -0.36       5.44
H      23.16      16.04       6.93
H      23.96      14.45       6.90
H      13.88      13.65       0.94
H      14.79      15.18       0.89
H      16.54      14.20       2.42
H      15.63      12.66       2.48
H      23.97      14.88      29.15
H      23.10      14.21      27.75
H      24.88      15.13      26.21
H      16.58      -1.55      27.61
H      24.88       2.38      28.73
H      25.71       1.69      27.31
H      23.91       2.62      25.81
H      23.09       3.32      27.23
C      25.17       6.18      17.91
C      27.57      10.60      17.54
C      25.18       9.01      13.52
C      11.91       8.67      13.68
C       8.97       4.50      13.77
C      11.67       6.16      17.89
C      21.07      11.25       9.92
C      18.44       9.36       5.92
C      20.76      13.82       5.49
C      15.71      13.74       5.86
C      18.38      15.45       9.78
C      16.01      10.86      10.06
C      15.79       3.96      21.48
C      18.61       5.69      25.38
C      21.03       3.97      21.46
C      20.73       1.05      25.81
C      18.39      -0.30      21.45
C      15.83       1.35      25.70
C      11.61      -0.84      29.18
C      18.76      11.98      29.50
C      24.94      -1.15      29.30
C      24.99      15.96       2.00
C      18.49       3.03       1.85
C      11.60      16.01       2.29
C       7.94       2.46      12.54
C      10.20       0.17      10.99
C       8.98       3.26      12.98
C       9.16      -0.64      10.56
C       9.77       1.30      11.71
C       8.37       1.33      11.82
C      27.49      12.05      19.67
C      27.64      15.60      19.29
C      27.56      11.86      18.30
C      27.57      15.79      20.66
C      27.61      14.24      18.91
C      27.52      13.41      20.04
C      22.13      10.80      10.88
C      24.15       9.69      12.66
C      22.07       9.50      11.38
C      24.22      11.04      12.21
C      23.04       8.97      12.23
C      23.23      11.58      11.33
C      21.25       8.23      11.36
C      22.35       7.62      12.33
C      14.68       4.52      20.65
C      12.63       5.58      18.87
C      14.77       4.46      19.26
C      12.49       5.64      20.28
C      13.79       4.95      18.41
C      13.49       5.13      21.16
C      15.65       3.99      18.12
C      14.54       4.56      17.15
C      22.09       4.62      20.64
C      24.14       5.70      18.88
C      22.05       4.49      19.25
C      24.19       5.90      20.29
C      23.03       5.01      18.41
C      23.19       5.37      21.15
C      21.24       3.91      18.11
C      22.36       4.50      17.15
C      15.04      10.21      10.98
C      13.01       9.12      12.77
C      13.90      10.92      11.36
C      14.16       8.37      12.40
C      12.93      10.40      12.21
C      15.15       8.90      11.53
C      13.18      12.24      11.19
C      12.07      11.65      12.16
C      18.55       6.81       5.56
C      18.40       5.59       2.20
C      18.44       8.12       5.13
C      18.50       4.27       2.63
C      18.41       6.52       3.26
C      18.53       5.87       4.51
C      23.84      15.45       2.80
C      21.75      14.39       4.52
C      23.92      15.48       4.19
C      21.62      14.39       3.11
C      22.92      14.97       5.01
C      22.64      14.91       2.27
C      24.80      15.89       5.35
C      23.67      15.31       6.29
C      12.62      15.52       3.27
C      14.64      14.39       5.04
C      13.74      14.84       2.81
C      13.52      15.11       5.55
C      14.71      14.30       3.65
C      12.53      15.66       4.69
C      14.44      14.37       1.55
C      15.54      13.76       2.51
C      17.62       7.71      26.62
C      19.85       9.97      28.26
C      18.67       6.92      26.17
C      18.79      10.75      28.70
C      19.44       8.85      27.50
C      18.04       8.82      27.38
C      12.62      -0.20      28.29
C      14.69       0.86      26.54
C      13.76      -0.92      27.94
C      13.54       1.62      26.87
C      14.75      -0.42      27.09
C      12.53       1.11      27.73
C      23.64      15.09      28.12
C      15.59      -1.67      27.16
C      23.80      -0.67      28.47
C      21.72       0.42      26.74
C      23.87       0.60      27.90
C      21.60      -0.87      27.33
C      22.87       1.12      27.07
C      22.62      -1.40      28.17
C      24.73       1.84      27.79
C      23.61       2.43      26.85
S      10.53       2.63      12.50
S       7.61      -0.01      11.04
S      27.67      13.36      17.43
S      27.48      14.28      21.52
S      18.31       8.23       3.40
S      18.60       4.16       4.37
S      20.22       7.54      26.69
S      17.26      10.11      28.18
Cl      25.47      12.09      12.73
Cl      23.39      13.23      10.87
Cl      11.05       6.27      20.98
Cl      13.21       5.30      22.85
Cl      25.43       6.85      21.01
Cl      23.31       5.72      22.83
Cl      14.40       6.77      12.98
Cl      16.51       7.91      11.19
Cl      20.19      13.80       2.35
Cl      22.36      14.92       0.57
Cl      13.32      15.37       7.24
Cl      11.25      16.56       5.40
Cl      13.29       3.18      26.17
Cl      11.22       2.15      28.11
Cl      20.21      -1.85      27.06
Cl      31.52      14.38      28.86
O      27.60       7.51      15.67
O      24.79       6.23      16.69
O      27.39       9.53      18.22
O      26.31       9.55      13.65
O      26.34       6.45      18.34
O      24.81       7.89      14.02
O      27.75      10.70      16.28
O      10.97       9.52      13.84
O      10.14       4.96      14.03
O      11.99       7.53      14.23
O       7.85       5.00      14.11
O      11.00       7.19      18.24
O      11.64       5.61      16.74
O      18.40      12.43       7.84
O      21.25      12.31       9.25
O      18.73       9.26       7.16
O      19.89      13.00       5.07
O      20.06      10.48       9.85
O      20.91      14.20       6.70
O      18.14      10.42       5.28
O      16.70      13.30       5.19
O      17.23      14.92       9.53
O      15.57      13.66       7.12
O      19.52      15.01       9.43
O      16.91      10.15       9.51
O      15.84      12.12       9.88
O      18.43       2.61      23.50
O      16.81       3.57      20.82
O      17.46       5.32      24.99
O      21.27       3.73      22.69
O      15.64       3.89      22.74
O      19.96       3.67      20.83
O      19.73       5.10      25.16
O      21.02       2.26      25.48
O      18.32      -0.48      22.72
O      19.72       0.39      25.42
O      18.44       0.81      20.83
O      16.05       2.60      25.64
O      16.53       0.44      25.13
O      18.39      15.03      31.39
O      10.45      -0.32      29.28
O      19.85      12.51      29.88
O      34.23      14.94      29.51
O      12.00      -1.90      29.78
O      25.74      -0.24      29.70
O      17.57      12.40      29.73
O      25.16      15.50       0.82
O      18.53       1.95       2.53
O      25.74      16.81       2.59
O      18.43       3.14       0.58
O      12.02      16.11       1.08
O      10.43      16.27       2.69
F       6.64       2.72      12.77
F      11.50      -0.08      10.76
F      27.41      11.07      20.58
F      18.54      -0.73      18.39
F      18.66       6.43       6.85
F      18.30       5.96       0.92
F      16.32       7.47      26.37
F      21.15      10.23      28.52
