50

Zn       8.17       8.89       8.08
Zn       7.82       6.09       8.13
H      14.85       9.03       8.10
H       1.14       5.96       8.11
H       7.18       1.39      10.26
H       8.82      13.60       5.95
C       8.01       7.54      10.71
C       7.98       7.44       5.50
C       8.03       7.56      12.16
C       7.97       7.42       4.05
C       8.87      14.17       9.34
C       7.13       0.81       6.87
C       8.81      13.47       8.11
C       7.19       1.51       8.10
C       8.87      14.16       6.89
C       7.13       0.83       9.32
C       8.67      12.06       8.10
C       7.32       2.92       8.11
C       5.43       7.91       8.11
C      10.56       7.07       8.10
C      12.00       6.94       8.10
C       3.99       8.04       8.11
C      14.63       6.92       8.10
C       1.37       8.06       8.11
C       2.77       8.06       8.11
C      13.22       6.92       8.10
C       8.08       8.59       0.68
C       7.91       6.40      15.53
C       7.94       7.38       1.42
C       8.05       7.60      14.79
C       7.79       6.16       0.71
C       8.20       8.82      15.50
C       7.95       7.40       2.83
C       8.04       7.59      13.38
Br       8.39      10.42      14.51
Br       7.61       4.57       1.70
Br       8.28      10.20       1.64
Br       7.71       4.78      14.57
Br       8.79      13.24      10.97
Br       7.20       1.74       5.24
N       7.45       4.08       8.16
N       8.55      10.91       8.05
O       8.14       8.67      10.13
O       7.86       6.32       6.08
O       7.88       6.40      10.17
O       8.11       8.59       6.04
O       6.12       8.99       8.09
O       9.87       6.00       8.12
O       5.87       6.72       8.13
O      10.12       8.26       8.08
