134

Al       3.70       7.04      12.20
Al       3.70      21.12       4.07
H       2.88      17.76       3.25
H       2.76      16.05       3.15
H       3.11      13.67       5.58
H       0.03      14.68       4.48
H       0.70      19.72       7.21
H       1.02      18.87       8.67
H       1.15      15.58       9.39
H       0.11      16.93       9.13
H       3.11      14.49      10.69
H       0.03      13.49      11.78
H       2.88      10.40      13.01
H       2.76      12.11      13.11
H       1.15      12.59       6.87
H       0.11      11.23       7.13
H       0.70       8.45       9.06
H       1.02       9.29       7.59
H       2.88      22.10       7.38
H       2.76      22.87       8.91
H       3.11      26.16       9.76
H       0.03      24.71       9.44
H       0.70      24.55       3.71
H       1.02      26.24       3.71
H       1.15      28.51       6.20
H       0.11      27.60       5.16
H       3.11      30.17       6.50
H       0.03      31.62       6.82
H       2.88       6.06       8.88
H       2.76       5.29       7.35
H       1.15      27.82      10.06
H       0.11      28.73      11.10
H       0.70      31.78      12.55
H       1.02      30.09      12.55
H       2.88      23.51       1.56
H       2.76      24.45       0.13
H       3.11      37.63      21.25
H       0.03      38.07      22.67
H       0.70      19.11       1.28
H       1.02      32.34      24.20
H       1.15      33.37      20.99
H       0.11      32.92      22.30
H       3.11      32.79      19.41
H       0.03      32.35      17.99
H       2.88      32.82      14.70
H       2.77      31.88      16.13
H       1.15      37.05      19.66
H       0.11      37.50      18.36
H       0.70       9.06      14.98
H       1.02       9.90      16.45
C       1.79      35.06      14.29
C       1.79       8.93      11.28
C       1.79      33.47      11.02
C       1.79      19.23       4.98
C       1.79      22.87       5.24
C       1.79      21.27       1.97
C       1.85      17.94       5.66
C       1.35      17.80       6.99
C       1.48      16.57       7.67
C       2.03      15.45       6.99
C       2.50      15.58       5.66
C       2.45      16.82       5.00
C       2.50      12.58      10.60
C       2.03      12.72       9.27
C       1.48      11.60       8.59
C       1.35      10.37       9.28
C       1.85      10.23      10.60
C       2.45      11.35      11.26
C       1.85      24.10       6.03
C       1.35      25.32       5.48
C       1.48      26.52       6.21
C       2.03      26.50       7.52
C       2.50      25.27       8.07
C       2.45      24.09       7.32
C       2.50      31.06       8.19
C       2.03      29.84       8.74
C       1.48      29.81      10.05
C       1.35      31.02      10.78
C       1.85      32.23      10.24
C       2.45      32.24       8.94
C       1.85      21.33       0.51
C       1.35      34.34      24.12
C       1.48      34.36      22.71
C       2.03      35.51      22.08
C       2.50      36.60      22.86
C       2.45      36.55      24.26
C       2.50      33.81      17.79
C       2.03      34.90      18.57
C       1.48      36.05      17.94
C       1.35      36.07      16.54
C       1.85      35.00      15.75
C       2.45      33.87      16.39
N       2.09      14.16       7.49
N       2.09      14.01       8.77
N       2.09      27.57       8.39
N       2.09      28.76       7.88
N       2.09      35.72      20.71
N       2.09      34.69      19.94
N       2.99      16.87       3.72
N       3.00      14.47       4.96
N       0.74      18.83       7.69
N       1.03      16.51       8.99
N       3.00      13.69      11.30
N       2.99      11.30      12.54
N       1.03      11.65       7.27
N       0.74       9.34       8.57
N       2.99      22.95       7.92
N       3.00      25.22       9.38
N       0.74      25.42       4.24
N       1.03      27.69       5.60
N       3.00      31.11       6.88
N       2.99       5.21       8.34
N       1.03      28.64      10.67
N       0.74      30.92      12.02
N       2.99      23.55       0.55
N       3.00      37.76      22.25
N       0.74      19.13       0.26
N       1.03      33.25      22.00
N       3.00      32.65      18.40
N       2.99      32.78      15.71
N       1.03      37.17      18.65
N       0.74      37.20      16.00
O       2.66      34.39      10.81
O       2.66      34.41      13.60
O       2.66       8.65      12.19
O       0.86      33.60      11.91
O       0.86       8.09      10.95
O       0.86      35.76      13.73
O       2.66      21.92       2.67
O       2.66      19.51       4.08
O       2.66      21.94       5.46
O       0.86      20.57       2.53
O       0.86      22.73       4.35
O       0.86      20.07       5.31
