132

Al       5.56       6.10      17.13
Al       1.74      15.60       5.69
Al       2.24       6.13      17.09
Al       5.06      15.57       5.73
H       5.00      10.59      21.88
H       2.30      11.11       0.94
H       1.48       1.77      12.51
H       5.82      19.92      10.31
H       4.64      10.92       0.85
H       2.66      10.77      21.97
H       1.55      20.34      10.73
H       5.75       1.36      12.09
H       5.35       7.70      13.32
H       1.95      13.99       9.50
H       5.60       4.40      21.06
H       1.70      17.29       1.76
H       2.25       9.63      14.73
H       5.05      12.07       8.09
H       2.07       2.72      19.33
H       5.23      18.97       3.49
H       4.04      13.62      12.44
H       3.91      13.47      10.68
H       2.82      14.57      11.54
H       3.27       8.08      10.38
H       4.48       7.13      11.28
H       3.39       8.23      12.14
H       6.79      19.24      21.48
H       1.20      18.19      22.46
H       6.56      17.97       0.43
H       0.51       2.45       1.33
H       0.74       3.73      22.39
H       6.10       3.51       0.36
H       3.92       7.87      17.34
H       3.38      13.82       5.48
H       0.58       4.36      16.89
H       6.72      17.34       5.93
C       3.93       4.57      18.95
C       3.37      17.12       3.87
C       0.51       7.65      15.26
C       6.79      14.04       7.56
C       3.86       4.47      15.36
C       3.45      17.23       7.46
C       0.63       7.77      18.86
C       6.67      13.93       3.96
C       5.60      10.58       0.47
C       1.70      11.12      22.35
C       2.55      20.63      11.04
C       4.75       1.07      11.78
C       6.79      11.13       1.01
C       0.51      10.57      21.81
C       3.66      20.02      10.41
C       3.64       1.67      12.41
C       1.39      10.68       0.52
C       5.91      11.02      22.30
C       4.97      20.40      10.80
C       2.33       1.30      12.02
C       6.73      12.11       2.02
C       0.57       9.59      20.80
C       3.50      19.05       9.39
C       3.80       2.65      13.43
C       0.60       8.74      19.92
C       6.70      12.95       2.90
C       3.87       3.49      14.31
C       3.43      18.21       8.51
C       6.10       8.48      13.16
C       1.20      13.22       9.66
C       4.78       3.69      21.14
C       2.52      18.01       1.68
C       0.49       8.58      14.10
C       6.81      13.11       8.72
C       3.84       3.64      20.12
C       3.46      18.05       2.70
C       1.46       9.57      13.97
C       5.84      12.12       8.85
C       2.79       2.72      20.15
C       4.51      18.97       2.67
C       1.39      10.50      12.93
C       5.91      11.19       9.89
C       2.69       1.80      21.20
C       4.61      19.89       1.62
C       0.36      10.38      11.95
C       6.94      11.31      10.87
C       3.63       1.86      22.28
C       3.67      19.83       0.54
C       6.03       9.34      12.06
C       1.27      12.35      10.76
C       4.69       2.83      22.24
C       2.61      18.87       0.58
C       2.33      11.58      12.77
C       4.97      10.11      10.05
C       2.07      21.09      21.27
C       5.23       0.60       1.55
C       2.32      12.48      11.74
C       4.98       9.21      11.08
C       1.90      20.22      22.32
C       5.40       1.47       0.50
C       3.33      13.59      11.61
C       3.97       8.10      11.21
C       0.79      19.21      22.37
C       6.51       2.49       0.45
N       3.34      11.73      13.84
N       3.96       9.97       8.98
N       1.17      21.00      20.10
N       6.13       0.69       2.72
O       2.73       5.02      15.60
O       4.57      16.68       7.22
O       6.17       7.51      18.29
O       1.13      14.19       4.53
O       5.07       5.08      18.69
O       2.23      16.62       4.13
O       1.62       7.48      15.87
O       5.68      14.21       6.95
O       4.95       4.69      15.97
O       2.35      17.01       6.85
O       1.77       7.25      18.59
O       5.53      14.44       4.23
O       6.04       7.12      15.57
O       1.26      14.58       7.25
O       2.86       4.77      18.29
O       4.44      16.93       4.53
O       3.91       6.94      17.09
O       3.39      14.76       5.73
O       0.58       5.29      17.14
O       6.72      16.40       5.68
O       2.92      12.00      14.98
O       4.53      11.57      13.53
O       4.38       9.69       7.84
O       2.77      10.13       9.29
O       1.68      20.66      19.03
O       6.62      21.28      20.27
O       5.62       1.03       3.79
O       0.68       0.42       2.55
