384

Zn       3.46       5.46       5.60
Zn       3.46      15.20      15.06
Zn      15.56       5.60      15.20
Zn      15.56      15.06       5.46
Zn       6.05       4.87      15.93
Zn       6.05      15.79       4.73
Zn      12.97       4.73       4.87
Zn      12.97      15.93      15.79
Zn       6.22       4.86       5.09
Zn       6.22      15.80      15.57
Zn      12.80       5.09      15.80
Zn      12.80      15.57       4.86
Zn       3.29       5.47      15.42
Zn       3.29      15.19       5.24
Zn      15.73       5.24       5.47
Zn      15.73      15.42      15.19
H       1.98      19.36       6.44
H       1.98       1.30      14.22
H      17.04       6.44       1.30
H      17.04      14.22      19.36
H       7.53      11.63      16.77
H       7.53       9.03       3.89
H      11.49       3.89      11.63
H      11.49      16.77       9.03
H       1.12       6.44       7.45
H       1.12      14.22      13.21
H      17.89       7.45      14.22
H      17.89      13.21       6.44
H       8.39       3.89      17.78
H       8.39      16.77       2.88
H      10.63       2.88       3.89
H      10.63      17.78      16.77
H       1.33       4.69       7.57
H       1.33      15.97      13.09
H      17.68       7.57      15.97
H      17.68      13.09       4.69
H       8.17       5.64      17.90
H       8.17      15.02       2.76
H      10.84       2.76       5.64
H      10.84      17.90      15.02
H       1.25       3.37       5.57
H       1.25      17.29      15.09
H      17.77       5.57      17.29
H      17.77      15.09       3.37
H       8.26       6.96      15.91
H       8.26      13.70       4.76
H      10.76       4.76       6.96
H      10.76      15.91      13.70
H       1.42       4.12       3.99
H       1.42      16.54      16.67
H      17.60       3.99      16.54
H      17.60      16.67       4.12
H       8.09       6.21      14.32
H       8.09      14.45       6.34
H      10.92       6.34       6.21
H      10.92      14.32      14.45
H       1.17       6.53       3.83
H       1.17      14.13      16.83
H      17.85       3.83      14.13
H      17.85      16.83       6.53
H       8.34       3.80      14.16
H       8.34      16.86       6.50
H      10.68       6.50       3.80
H      10.68      14.16      16.86
H       1.27       7.54       5.28
H       1.27      13.13      15.38
H      17.75       5.28      13.13
H      17.75      15.38       7.54
H       8.24       2.80      15.61
H       8.24      17.87       5.05
H      10.78       5.05       2.80
H      10.78      15.61      17.87
H       2.07       1.35       6.63
H       2.07      19.31      14.03
H      16.95       6.63      19.31
H      16.95      14.03       1.35
H       7.44       8.98      16.96
H       7.44      11.68       3.70
H      11.57       3.70       8.98
H      11.57      16.96      11.68
H       7.64       5.78       9.26
H       7.64      14.88      11.41
H      11.38       9.26      14.88
H      11.38      11.41       5.78
H       1.87       4.55      19.59
H       1.87      16.11       1.08
H      17.14       1.08       4.55
H      17.14      19.59      16.11
H       7.55       5.79      11.92
H       7.55      14.87       8.74
H      11.46      11.92      14.87
H      11.46       8.74       5.79
H       1.95       4.54       1.59
H       1.95      16.12      19.08
H      17.06      19.08       4.54
H      17.06       1.59      16.12
H      18.01       4.32       7.38
H      18.01      16.34      13.28
H       1.01       7.38      16.34
H       1.01      13.28       4.32
H      10.52       6.01      17.71
H      10.52      14.65       2.95
H       8.50       2.95       6.01
H       8.50      17.71      14.65
H      17.79       6.06       7.56
H      17.79      14.60      13.10
H       1.23       7.56      14.60
H       1.23      13.10       6.06
H      10.73       4.27      17.89
H      10.73      16.39       2.77
H       8.28       2.77       4.27
H       8.28      17.89      16.39
H      17.92       7.46       5.60
H      17.92      13.20      15.06
H       1.09       5.60      13.20
H       1.09      15.06       7.46
H      10.60       2.87      15.93
H      10.60      17.79       4.73
H       8.41       4.73       2.87
H       8.41      15.93      17.79
H      17.81       6.74       3.98
H      17.81      13.92      16.68
H       1.20       3.98      13.92
H       1.20      16.68       6.74
H      10.71       3.59      14.31
H      10.71      17.07       6.35
H       8.31       6.35       3.59
H       8.31      14.31      17.07
H      18.07       4.35       3.76
H      18.07      16.31      16.90
H       0.95       3.76      16.31
H       0.95      16.90       4.35
H      10.46       5.98      14.09
H      10.46      14.68       6.57
H       8.56       6.57       5.98
H       8.56      14.09      14.68
H      17.92       3.30       5.17
H      17.92      17.36      15.49
H       1.09       5.17      17.36
H       1.09      15.49       3.30
H      10.60       7.03      15.50
H      10.60      13.63       5.16
H       8.41       5.16       7.03
H       8.41      15.50      13.63
C       5.13       5.81       7.85
C       5.13      14.85      12.81
C      13.89       7.85      14.85
C      13.89      12.81       5.81
C       4.38       4.52      18.18
C       4.38      16.14       2.48
C      14.64       2.48       4.52
C      14.64      18.18      16.14
C       4.17       1.23       6.09
C       4.17      19.43      14.57
C      14.85       6.09      19.43
C      14.85      14.57       1.23
C       5.34       9.10      16.42
C       5.34      11.56       4.24
C      13.67       4.24       9.10
C      13.67      16.42      11.56
C       4.09      19.42       5.93
C       4.09       1.24      14.73
C      14.93       5.93       1.24
C      14.93      14.73      19.42
C       5.42      11.57      16.26
C       5.42       9.09       4.40
C      13.60       4.40      11.57
C      13.60      16.26       9.09
C       2.86      19.97       6.28
C       2.86       0.69      14.38
C      16.15       6.28       0.69
C      16.15      14.38      19.97
C       6.65      11.02      16.61
C       6.65       9.64       4.05
C      12.37       4.05      11.02
C      12.37      16.61       9.64
C       4.53       2.66       6.00
C       4.53      18.00      14.66
C      14.49       6.00      18.00
C      14.49      14.66       2.66
C       4.98       7.67      16.33
C       4.98      12.99       4.33
C      14.04       4.33       7.67
C      14.04      16.33      12.99
C       0.83       5.48       7.00
C       0.83      15.18      13.66
C      18.18       7.00      15.18
C      18.18      13.66       5.48
C       8.68       4.85      17.33
C       8.68      15.81       3.33
C      10.34       3.33       4.85
C      10.34      17.33      15.81
C       0.90       4.20       4.95
C       0.90      16.46      15.71
C      18.11       4.95      16.46
C      18.11      15.71       4.20
C       8.61       6.13      15.28
C       8.61      14.53       5.38
C      10.41       5.38       6.13
C      10.41      15.28      14.53
C       0.82       6.62       4.86
C       0.82      14.04      15.80
C      18.19       4.86      14.04
C      18.19      15.80       6.62
C       8.69       3.71      15.20
C       8.69      16.96       5.47
C      10.33       5.47       3.71
C      10.33      15.20      16.96
C       2.91       0.71       6.38
C       2.91      19.95      14.28
C      16.11       6.38      19.95
C      16.11      14.28       0.71
C       6.60       9.62      16.71
C       6.60      11.04       3.95
C      12.42       3.95       9.62
C      12.42      16.71      11.04
C       5.47       5.92       9.29
C       5.47      14.74      11.37
C      13.55       9.29      14.74
C      13.55      11.37       5.92
C       4.04       4.41      19.62
C       4.04      16.25       1.04
C      14.98       1.04       4.41
C      14.98      19.62      16.25
C       6.73       5.85       9.86
C       6.73      14.81      10.81
C      12.28       9.86      14.81
C      12.28      10.81       5.85
C       2.78       4.48      20.19
C       2.78      16.18       0.47
C      16.24       0.48       4.48
C      16.24      20.19      16.18
C       4.38      17.99       5.69
C       4.38       2.67      14.97
C      14.64       5.69       2.67
C      14.64      14.97      17.99
C       5.13      13.00      16.02
C       5.13       7.66       4.64
C      13.89       4.64      13.00
C      13.89      16.02       7.66
C       5.39       5.93      11.75
C       5.39      14.74       8.91
C      13.62      11.75      14.74
C      13.62       8.91       5.93
C       4.12       4.40       1.42
C       4.12      16.26      19.24
C      14.90      19.24       4.40
C      14.90       1.42      16.26
C       4.98       5.82      13.17
C       4.98      14.84       7.50
C      14.03      13.17      14.84
C      14.03       7.50       5.82
C       4.53       4.51       2.84
C       4.53      16.15      17.83
C      14.49      17.83       4.51
C      14.49       2.84      16.15
C       6.69       5.86      11.26
C       6.69      14.80       9.40
C      12.33      11.26      14.80
C      12.33       9.40       5.86
C       2.82       4.47       0.93
C       2.82      16.19      19.73
C      16.20      19.73       4.47
C      16.20       0.93      16.19
C      18.31       5.29       6.98
C      18.31      15.37      13.69
C       0.71       6.98      15.37
C       0.71      13.69       5.29
C      10.21       5.04      17.31
C      10.21      15.62       3.36
C       8.80       3.36       5.04
C       8.80      17.31      15.62
C      18.29       6.64       4.97
C      18.29      14.02      15.70
C       0.72       4.97      14.02
C       0.72      15.70       6.64
C      10.23       3.69      15.30
C      10.23      16.97       5.36
C       8.78       5.36       3.69
C       8.78      15.30      16.97
C      18.39       4.23       4.80
C      18.39      16.44      15.86
C       0.63       4.80      16.44
C       0.63      15.86       4.23
C      10.14       6.11      15.13
C      10.14      14.56       5.53
C       8.88       5.53       6.11
C       8.88      15.13      14.56
S       5.29      20.64       5.72
S       5.29       0.02      14.95
S      13.73       5.72       0.02
S      13.73      14.95      20.64
S       4.22      10.35      16.05
S       4.22      10.31       4.61
S      14.79       4.61      10.35
S      14.79      16.05      10.31
S       4.24       6.01      10.48
S       4.24      14.66      10.18
S      14.78      10.48      14.65
S      14.78      10.18       6.01
S       5.27       4.32       0.15
S       5.27      16.34      20.51
S      13.74      20.51       4.32
S      13.74       0.15      16.34
N       1.37       5.46       5.61
N       1.37      15.20      15.05
N      17.65       5.61      15.20
N      17.65      15.05       5.46
N       8.14       4.87      15.94
N       8.14      15.79       4.72
N      10.87       4.72       4.87
N      10.87      15.94      15.79
N      17.81       5.36       5.57
N      17.81      15.30      15.09
N       1.20       5.57      15.30
N       1.20      15.09       5.36
N      10.71       4.97      15.90
N      10.71      15.69       4.76
N       8.31       4.76       4.97
N       8.31      15.90      15.69
O       6.08       5.47       7.08
O       6.08      15.19      13.58
O      12.93       7.08      15.19
O      12.93      13.58       5.47
O       3.43       4.86      17.41
O       3.43      15.80       3.25
O      15.59       3.25       4.86
O      15.59      17.41      15.80
O       5.71       2.94       5.62
O       5.71      17.72      15.04
O      13.30       5.62      17.72
O      13.30      15.04       2.94
O       3.79       7.39      15.95
O       3.79      13.28       4.71
O      15.22       4.71       7.39
O      15.22      15.95      13.28
O       3.61       3.49       6.28
O       3.61      17.17      14.38
O      15.41       6.28      17.17
O      15.41      14.38       3.49
O       5.90       6.84      16.61
O       5.90      13.82       4.05
O      13.12       4.05       6.84
O      13.12      16.61      13.82
O       3.92       6.03       7.51
O       3.92      14.63      13.15
O      15.10       7.51      14.63
O      15.10      13.15       6.03
O       5.59       4.30      17.84
O       5.59      16.37       2.82
O      13.43       2.82       4.30
O      13.43      17.84      16.37
O       3.39      17.20       5.77
O       3.39       3.46      14.89
O      15.63       5.77       3.46
O      15.63      14.89      17.20
O       6.12      13.79      16.10
O       6.12       6.87       4.56
O      12.89       4.56      13.79
O      12.89      16.10       6.87
O       5.58      17.67       5.41
O       5.58       2.99      15.25
O      13.43       5.41       2.99
O      13.43      15.25      17.67
O       3.92      13.32      15.74
O       3.92       7.34       4.92
O      15.09       4.92      13.32
O      15.09      15.74       7.34
O       5.92       5.61      14.00
O       5.92      15.05       6.66
O      13.09      14.00      15.05
O      13.09       6.66       5.61
O       3.58       4.72       3.67
O       3.58      15.94      16.99
O      15.43      16.99       4.72
O      15.43       3.67      15.94
O       3.74       5.92      13.45
O       3.74      14.74       7.22
O      15.27      13.45      14.74
O      15.27       7.22       5.92
O       5.76       4.41       3.12
O       5.76      16.25      17.55
O      13.25      17.55       4.41
O      13.25       3.12      16.25
