133

Zn      22.25      16.46       8.40
Zn      15.09       3.19       8.22
Zn      11.92       3.22       8.41
Zn      13.41       2.22       5.70
Zn      31.35      14.66      15.03
Zn      15.00      11.99      14.90
Zn      29.82      11.90      14.83
Zn      22.53       7.81       1.96
H      21.49      14.98       3.05
H      14.74       6.76      10.85
H      24.93      14.66      11.15
H      23.20      13.49       2.02
H      22.80      12.76       6.52
H      21.09      12.75       5.99
H      24.01      10.46       4.44
H      24.70      11.98       1.67
H      19.13      15.72      13.18
H      16.59      18.48      11.56
H       7.26       6.55       5.91
H      24.45      13.41       4.78
H       9.58       6.89       1.19
H      10.29       6.21       6.99
H      10.59       3.33       3.53
H      16.22       6.23       6.48
H      18.42       3.53       3.16
H      14.20       6.41      13.20
H      26.32      12.86      11.13
H      19.21      12.20       2.85
H      26.72      16.92      12.77
H      26.98      17.68       9.68
H      15.62      16.47      11.97
H      21.46      13.65       0.97
H      24.09      15.55       2.60
H      21.64       9.78       4.61
H      18.78      15.20      10.82
H      20.30      14.46       4.25
H      19.46       6.56       4.67
H      17.89       5.71       2.15
H      11.86       8.93      11.79
H      11.66       6.67      10.79
C      15.86       3.79       5.43
C      18.67      16.27      10.65
C       8.16       6.25       4.27
C      19.68      16.87       9.78
C       8.31       6.50       2.90
C       9.22       5.67       5.13
C       9.99       4.60       4.75
C      18.67       6.06       4.11
C      18.71       6.08       2.76
C      17.60       5.48       4.89
C      16.92       4.34       4.54
C      22.14      12.79       5.65
C      12.64       8.20      11.97
C      13.51       8.47      12.99
C      12.63       7.03      11.12
C      24.89      16.81       9.65
C      13.73       6.40      10.65
C      26.94      14.46      11.96
C      27.87      15.08      12.76
C      25.91      15.13      11.18
C      26.05      16.24      10.41
C       7.14       6.81       2.04
C      22.37      14.06       4.82
C      28.95      14.33      13.46
C      15.85      14.58      13.77
C      19.87       6.61       2.00
C      13.44       9.83      13.62
C      10.95       3.86       5.66
C      22.34      10.78       2.32
C      13.63       5.21       9.78
C      22.37      15.31       5.68
C      21.25      14.18       3.77
C      21.00      12.81       3.06
C      22.30      11.96       3.27
C      23.75      13.88       4.08
C      18.35      15.01      13.55
C       9.63       6.64       2.27
C       9.30       6.20       6.50
C      17.29       6.19       6.18
C      17.32       3.51       3.36
C      14.42       7.45      13.56
C      27.73      16.53      13.02
C      20.69      13.13       1.58
C      24.38      15.18       3.61
C      23.50      12.91       2.91
C      22.41      11.54       4.79
C      16.68      16.20      12.11
C      16.98      15.28      13.07
C      17.62      16.90      11.24
O      22.28      18.29       7.66
O      19.79       6.48       0.73
O      14.56      10.38      13.87
O      14.79       3.35       4.90
O      22.60       9.63       2.80
O      12.28      10.30      13.82
O      22.17      11.05       1.09
O      15.01      15.31      14.39
O      20.84       7.11       2.66
O       7.39       7.02       0.80
O      28.67      13.16      13.88
O      23.79      16.18       9.62
O      20.64      16.08       9.43
O      25.15      17.93       9.09
O      10.91       4.08       6.91
O      14.75       4.70       9.41
O      22.24      16.41       5.04
O      12.47       4.78       9.47
O      22.47      15.18       6.94
O      23.75      11.14       5.08
O      24.72      12.23       2.61
O      18.63      14.13      14.35
O      11.71       3.05       5.04
O      17.34      18.21      11.01
O       7.04       6.55       4.92
O      10.72       6.56       2.84
O       8.32       6.69       7.09
O       9.91       4.05       3.55
O      18.16       6.72       6.85
O      16.56       2.83       2.69
O      15.27       7.65      14.42
O      26.95      13.11      11.83
O      19.87      12.15       3.58
O      16.15       3.79       6.68
O      28.57      17.27      13.51
O      27.20      16.92      10.26
O      19.57      12.92       1.15
O      25.17      15.81       4.30
O      21.49      10.55       5.19
O      19.56      18.10       9.44
O      22.54       8.04       0.01
O       5.97       6.82       2.56
O      30.07      14.94      13.61
O      15.84      13.32      13.66
