110

Al       3.94      36.23      12.55
Al       3.94      21.74       4.18
H       0.90      19.49       7.63
H       3.04      17.63       4.40
H       3.04      11.35      12.33
H       0.90       9.49       9.10
H       0.90      25.84       4.40
H       3.04      23.98       7.63
H       3.04      33.98       9.10
H       0.90      32.12      12.33
H       0.90      19.87       0.52
H       3.04      23.60       0.52
H       3.04      34.36      16.22
H       0.90      38.09      16.22
H       3.24      14.41       6.12
H       3.77      15.30       4.78
H       0.70      16.40       9.56
H       0.17      18.00       9.46
H       0.70      12.58       7.17
H       0.17      10.98       7.27
H       3.24      14.57      10.62
H       3.77      13.68      11.96
H       3.24      27.07       9.56
H       3.77      25.47       9.46
H       0.70      29.06       6.12
H       0.17      28.17       4.78
H       0.70      28.90      10.62
H       0.17      29.79      11.96
H       3.24      30.89       7.17
H       3.77      32.50       7.27
H       3.24      38.22      21.97
H       3.77      38.93      23.41
H       0.70      34.24      21.97
H       0.17      33.52      23.41
H       0.70      38.22      19.86
H       0.17      38.93      18.42
H       3.24      34.24      19.86
H       3.77      33.52      18.42
C       1.97      36.23      14.61
C       1.97       9.03      11.52
C       1.97      34.44      11.52
C       1.97      19.95       5.21
C       1.97      23.52       5.21
C       1.97      21.74       2.12
C       1.97      18.66       5.96
C       1.38      18.60       7.22
C       1.40      17.41       7.94
C       1.97      16.24       7.35
C       2.54      16.32       6.05
C       2.57      17.54       5.38
C       1.97      15.02       8.06
C       1.97      13.96       8.67
C       1.97      12.74       9.38
C       2.54      12.67      10.68
C       2.56      11.44      11.36
C       1.97      10.32      10.77
C       1.38      10.38       9.51
C       1.40      11.58       8.79
C       1.97      24.81       5.96
C       1.38      25.93       5.38
C       1.40      27.16       6.05
C       1.97      27.23       7.35
C       2.54      26.07       7.94
C       2.57      24.87       7.22
C       1.97      28.45       8.06
C       1.97      29.51       8.67
C       1.97      30.74       9.38
C       2.54      31.90       8.79
C       2.57      33.09       9.51
C       1.97      33.15      10.77
C       1.38      32.03      11.36
C       1.40      30.81      10.68
C       1.97      21.74       0.63
C       1.38      35.16      25.05
C       1.40      35.14      23.65
C       1.97      36.23      22.94
C       2.54      37.32      23.65
C       2.57      37.29      25.05
C       1.97      36.23      21.53
C       1.97      36.23      20.30
C       1.97      36.23      18.89
C       2.54      35.14      18.18
C       2.56      35.16      16.78
C       1.97      36.23      16.10
C       1.38      37.29      16.78
C       1.40      37.32      18.18
N       3.03      15.16       5.46
N       0.91      17.34       9.24
N       0.91      11.64       7.49
N       3.03      13.82      11.27
N       3.03      26.13       9.24
N       0.91      28.32       5.46
N       0.91      29.65      11.28
N       3.03      31.83       7.49
N       3.03      38.41      22.95
N       0.91      34.04      22.95
N       0.91      38.41      18.88
N       3.03      34.04      18.89
O       2.90      35.28      11.25
O       2.90      35.58      14.02
O       2.90       8.84      12.38
O       1.04      34.63      12.38
O       1.04       8.19      11.25
O       1.04      36.88      14.02
O       2.90      22.39       2.71
O       2.90      20.14       4.36
O       2.90      22.68       5.48
O       1.04      21.09       2.71
O       1.04      23.33       4.35
O       1.04      20.79       5.48
