136

Al       0.25       6.85      10.83
Al       3.57       6.85      10.83
Al       4.45       0.03       0.04
Al       1.13       0.01       0.04
H       3.32      19.65       2.68
H       3.34      17.62       4.11
H       0.90      19.23       2.04
H       0.67      16.32       5.68
H       0.57      14.27       7.01
H       3.42      13.29       5.25
H       3.50      15.36       3.93
H       3.15      12.42       7.36
H       3.11      10.34       8.72
H       0.71       9.96       8.31
H       0.76      12.00       6.88
H       0.36       7.72      14.94
H       2.76      11.90      15.38
H       0.49       8.90      17.13
H       3.83       4.15       7.65
H      -0.12       5.71       6.93
H       4.85       2.59       6.04
H       4.75       1.33       3.89
H      -0.15      -5.64      19.68
H      -0.23      -3.58      18.28
H       4.02      -3.89      17.62
H       4.09      -5.90      19.08
H       3.79      -1.62      17.68
H       3.73       0.41      16.28
H      -0.11      -2.72      16.19
H       1.39       0.19      12.80
H       2.39       4.63      14.80
H       2.27       2.62      16.26
H       1.90       8.48      11.53
H       5.24       5.11      10.96
H       1.34      12.17      20.89
H       6.12       1.59       0.79
C       1.89       5.69       8.73
C       1.94       4.81      12.17
C       5.27       8.04      12.97
C       5.22       8.82       9.47
C       4.25      19.11       2.86
C       4.26      17.97       3.65
C       5.44      17.24       3.89
C      -0.05      17.75       3.29
C      -0.03      18.88       2.50
C       5.43      19.57       2.27
C      -0.19      15.66       5.57
C      -0.24      14.49       6.32
C       5.33      13.61       6.23
C       4.27      13.96       5.37
C       4.32      15.13       4.62
C       5.42      16.00       4.70
C       4.07      11.87       7.54
C       4.04      10.71       8.31
C       5.23      10.03       8.60
C      -0.21      10.51       8.09
C      -0.19      11.66       7.31
C       5.29      12.37       7.03
C       5.29       8.80      14.26
C       4.68      11.96      18.23
C       3.54      11.60      16.08
C       3.70      12.28      17.26
C      -1.13      10.91      17.92
C       5.46      10.18      16.71
C       4.43      10.53      15.78
C       4.38       9.79      14.57
C      -0.36       8.49      15.21
C      -0.28       9.14      16.41
C       1.87       4.99       7.42
C       2.76       1.99       3.40
C       3.97       2.65       5.41
C       3.92       1.95       4.23
C       1.70       2.79       3.79
C       1.72       3.57       4.97
C       2.89       3.48       5.81
C       2.95       4.21       7.02
C       0.72       5.09       6.61
C       0.68       4.43       5.41
C       0.76      -5.23      19.23
C       0.72      -4.10      18.43
C       1.89      -3.58      17.86
C       3.11      -4.24      18.10
C       3.15      -5.38      18.91
C       1.98      -5.87      19.48
C       2.92      -1.42      17.06
C       2.87      -0.26      16.30
C       1.76       0.06      15.51
C       0.69      -0.85      15.53
C       0.74      -2.04      16.26
C       1.85      -2.35      17.05
C       1.59       1.15      13.27
C       1.66       2.29      12.47
C       1.93       3.56      12.99
C       2.16       3.65      14.37
C       2.10       2.52      15.18
C       1.80       1.26      14.65
C       2.02      -7.07      20.37
C       2.75       1.19       2.15
C       5.42      20.77       1.39
C       4.71      12.62      19.58
N       3.34      10.16      13.58
N       2.88      13.49      17.44
N      -0.58      -0.55      14.84
N       1.48       2.11      11.02
O       3.07       5.34      11.97
O       0.76       6.05       9.20
O      -0.32       8.39       9.88
O       0.80       5.26      11.83
O      -0.26       7.68      12.53
O       3.02       5.88       9.29
O       1.91       7.63      11.07
O       4.13       7.82      12.45
O       4.08       8.32       9.75
O       5.24       6.05      10.71
O       1.63       0.77       1.71
O       3.16      -7.57      20.63
O       3.58      12.75      20.15
O       3.88       0.98       1.60
O       4.29      21.30       1.14
O       0.90      -7.48      20.83
O       1.34      12.90      21.52
O      -0.11      21.17       0.93
O      -0.82      12.95      20.04
O       6.12       0.80       0.23
O       3.71      10.72      12.55
O       2.17       9.91      13.89
O       3.48      14.51      17.79
O       1.67      13.41      17.19
O       5.70       0.63      14.83
O       5.44      -1.50      14.37
O       1.86       3.04      10.28
O       0.99       1.05      10.61
F      -0.20      10.51      18.82
F       6.24       4.60       4.62
F       0.60       2.88       3.00
F       1.13      17.07       3.44
