100

Zn       5.84       9.68       8.47
Zn       5.87       6.87       8.49
H      10.32       9.60      10.26
H       1.39       6.83       7.09
H      10.20       6.25       8.68
H       1.62       6.24       9.38
H       4.83      10.19      12.62
H       4.42      10.13      15.11
H       5.32      10.42       1.73
H       5.85      10.40       4.21
H       6.29       6.16      12.73
H       5.91       6.10      15.23
H      10.08      10.55       8.79
H       4.50       6.34       4.44
H       7.66      11.76       7.61
H       7.45       2.18       6.90
H       3.87      11.79       9.30
H       3.85      14.33       9.35
H       4.52       4.75       9.86
H       1.47      10.32       8.08
H       1.34       7.44      10.61
H      10.06       7.35       6.64
H       5.20       4.96       1.15
H       3.61       4.20       1.49
H       4.71       4.61       2.85
H       8.05      15.41       7.50
H       8.80      13.83       7.11
H       8.00       5.81       7.16
H       8.47       4.33       6.36
H       2.22       1.59      10.44
H       2.79       1.27       8.76
H       2.34       2.95       9.27
H       1.73       9.09      11.63
H       0.70      10.56      11.65
H       2.46      10.68      11.93
H       9.92       7.62      11.26
H       8.73       6.80      10.47
H       9.32       9.54       6.08
H      10.82       9.35       5.41
H       2.86       7.99       5.89
H       2.24       9.46       6.21
C       5.63       8.30       5.89
C       1.78       8.27       8.64
C       1.14       7.21       9.55
C       1.27       7.92       7.17
C       5.27       8.34       4.44
C       4.70       7.22       3.83
C       4.39       7.22       2.47
C       4.69       8.37       1.70
C       5.15       9.53       2.35
C       5.46       9.52       3.70
C       4.83       9.27      14.58
C       8.46       8.43       8.44
C       5.05       9.30      13.21
C       5.15       8.11      15.30
C       5.59       8.18      12.54
C       5.88       7.02      13.27
C       5.66       6.98      14.64
C       5.15       4.15       9.20
C       4.99       2.77       9.18
C       5.84       2.04       8.30
C       6.78       2.74       7.54
C       6.87       4.14       7.62
C       5.83       8.24      11.07
C       6.92      13.78       7.95
C       6.83      12.37       7.98
C       5.80      14.51       8.47
C       4.70      12.40       8.94
C       4.70      13.78       8.95
C       3.29       8.22       8.61
C      10.56       9.64       9.18
C       1.27       9.70       8.96
C      10.42       7.12       9.32
C      10.55       8.24       7.09
C       9.98       8.39       8.52
C       4.36       4.92       1.85
C       2.79       1.99       9.59
C       1.69      10.16      11.36
N       4.64       8.46       0.29
N       5.08       7.99      16.71
N       6.03       4.83       8.44
N       5.92       0.64       8.16
N       5.68      15.89       8.55
N       5.77      11.72       8.45
N       8.03      14.38       7.46
N       7.78       4.84       6.89
N       9.74       6.87      10.59
N      10.32       9.45       6.30
N       1.98       8.49       6.04
O       6.12       9.35       6.42
O       5.40       7.20       6.51
O       7.87       9.51       8.74
O       7.87       7.35       8.08
O       5.55       9.34      10.49
O       6.28       7.19      10.49
O       3.88       9.26       8.18
O       3.87       7.13       8.95
O       3.70       6.19       1.89
O       4.13       2.20      10.08
O       1.99      10.41       9.99
