176

Zn       3.15       8.39      22.42
Zn       9.60       0.87      11.80
Zn       3.31       8.39      11.01
Zn       9.76       0.87       0.39
Zn      10.74       2.71      20.61
Zn       4.29      10.24      13.60
Zn       8.62       2.71       9.21
Zn       2.16      10.24       2.20
H       6.32       5.40      11.58
H      12.77      12.93      22.64
H       0.14       5.40       0.17
H       6.59      12.93      11.23
H       8.04       3.26      14.90
H       1.59      10.78      19.32
H      11.32       3.26       3.49
H       4.87      10.78       7.91
H       5.91       6.75      15.65
H      12.36      14.28      18.57
H       0.54       6.75       4.24
H       6.99      14.28       7.16
H       7.97       2.96      19.62
H       1.52      10.49      14.59
H      11.39       2.96       8.22
H       4.93      10.49       3.19
H       6.31       4.59       0.44
H      12.76      12.11      10.97
H       0.14       4.59      11.84
H       6.59      12.11      22.37
H       5.36       6.18      19.36
H      11.81      13.71      14.85
H       1.09       6.18       7.96
H       7.54      13.71       3.45
H      10.10       5.44      21.01
H       3.65      12.96      13.20
H       9.25       5.44       9.61
H       2.80      12.96       1.80
H       9.83       5.09      19.50
H       3.38      12.61      14.71
H       9.52       5.09       8.10
H       3.07      12.61       3.31
H      10.75       2.65      17.89
H       4.30      10.17      16.33
H       8.61       2.65       6.48
H       2.15      10.17       4.92
H       9.18       2.50      18.04
H       2.73      10.02      16.18
H      10.18       2.50       6.63
H       3.73      10.02       4.77
H       0.28       3.82      19.88
H       6.73      11.34      14.34
H       6.17       3.82       8.47
H      12.62      11.34       2.93
H       0.18       2.29      19.54
H       6.63       9.81      14.68
H       6.28       2.29       8.13
H      12.73       9.81       3.27
Pd       7.01       4.75      17.40
Pd       0.56      12.27      16.82
Pd      12.34       4.75       5.99
Pd       5.89      12.27       5.41
C       5.69       5.47      21.37
C      12.14      12.99      12.84
C       0.76       5.47       9.97
C       7.21      12.99       1.44
C       5.88       5.46      19.99
C      12.33      12.99      14.23
C       0.57       5.46       8.59
C       7.03      12.99       2.82
C       4.77       6.48      21.99
C      11.23      14.01      12.23
C       1.68       6.48      10.58
C       8.13      14.01       0.82
C       6.41       4.57      22.16
C      12.87      12.10      12.05
C       0.04       4.57      10.76
C       6.49      12.10       0.65
C       8.09       2.69      22.29
C       1.63      10.21      11.92
C      11.27       2.69      10.89
C       4.82      10.21       0.52
C       6.02       6.23      13.55
C      12.48      13.75      20.66
C       0.43       6.23       2.15
C       6.88      13.75       9.26
C       6.52       5.29      12.64
C       0.06      12.82      21.57
C      12.84       5.29       1.24
C       6.39      12.82      10.17
C       7.87       3.21      12.18
C       1.41      10.73      22.04
C      11.49       3.21       0.77
C       5.04      10.73      10.63
C       7.27       4.22      13.12
C       0.82      11.75      21.10
C      12.09       4.22       1.71
C       5.63      11.75       9.69
C       7.37       3.70      20.14
C       0.92      11.22      14.07
C      11.99       3.70       8.74
C       5.53      11.22       2.67
C       7.48       4.10      14.49
C       1.03      11.62      19.72
C      11.87       4.10       3.09
C       5.42      11.62       8.32
C       7.27       3.67      21.53
C       0.82      11.19      12.69
C      12.09       3.67      10.12
C       5.64      11.19       1.28
C       6.28       6.04      14.91
C      12.73      13.57      19.31
C       0.18       6.04       3.50
C       6.63      13.57       7.90
C       5.22       7.40      13.08
C      11.67      14.93      21.13
C       1.23       7.40       1.68
C       7.69      14.93       9.73
N       6.72       4.60      19.39
N       0.27      12.12      14.83
N      12.64       4.60       7.98
N       6.18      12.12       3.42
N       6.98       4.99      15.37
N       0.53      12.51      18.85
N      12.37       4.99       3.97
N       5.92      12.51       7.44
Cl       7.34       7.02      17.70
Cl       0.89      14.54      16.52
Cl      12.02       7.02       6.29
Cl       5.56      14.54       5.11
Cl       7.13       2.43      17.21
Cl       0.68       9.95      17.01
Cl      12.23       2.43       5.80
Cl       5.77       9.95       5.60
O       8.46       2.23      12.72
O       2.01       9.76      21.49
O      10.90       2.23       1.32
O       4.44       9.76      10.09
O       4.78       7.33      11.90
O      11.23      14.86      22.31
O       1.68       7.33       0.50
O       8.13      14.86      10.91
O       3.97       7.09      21.17
O      10.42      14.61      13.05
O       2.48       7.09       9.77
O       8.93      14.62       1.64
O       9.07       2.10      21.64
O       2.62       9.62      12.58
O      10.29       2.10      10.23
O       3.83       9.62       1.17
O       7.85       2.42       0.67
O       1.39       9.94      10.74
O      11.51       2.42      12.07
O       5.06       9.94      22.14
O       4.83       6.71       0.41
O      11.28      14.23      11.00
O       1.62       6.71      11.81
O       8.08      14.23      22.40
O       5.07       8.37      13.91
O      11.52       0.84      20.31
O       1.38       8.37       2.50
O       7.84       0.84       8.90
O       7.72       3.44      10.93
O       1.27      10.96       0.48
O      11.63       3.44      22.33
O       5.18      10.96      11.88
O      10.01       2.78      18.51
O       3.56      10.30      15.71
O       9.35       2.78       7.10
O       2.89      10.30       4.30
O      10.38       4.87      20.28
O       3.93      12.39      13.94
O       8.97       4.87       8.87
O       2.52      12.39       2.53
O      12.62       3.15      19.46
O       6.16      10.67      14.75
O       6.74       3.15       8.06
O       0.29      10.67       3.35
