86

La       7.60      15.32       9.55
La       4.58       2.77       0.94
La       9.05       1.87       2.25
La      12.07      14.42      10.86
H       4.27       5.41       8.62
H       7.90       7.21       9.85
H      12.38      11.78       3.18
H       8.74       9.99       1.95
H      12.02       4.89       7.71
H       9.10       8.24      10.01
H       4.63      12.30       4.09
H       7.55       8.95       1.79
H      10.00       7.10       2.19
H      11.12      12.60       5.96
H       6.65      10.09       9.61
H       5.52       4.59       5.84
H       5.49       6.14       0.32
H       6.68      14.69       6.18
H      11.15      11.05      11.48
H       9.97       2.51       5.62
H      11.43       9.03       1.40
H       9.69      12.64       3.88
H       5.22       8.16      10.40
H       6.96       4.56       7.92
C       4.99       8.83       0.30
C       7.18      13.73       3.67
C      11.65       8.36      11.50
C       9.47       3.46       8.13
C       4.12       7.73       0.84
C       8.06      13.62       4.89
C      12.53       9.46      10.96
C       8.59       3.57       6.91
C       2.53       5.64       1.61
C       9.65      13.66       7.12
C      14.12      11.55      10.19
C       7.00       3.53       4.68
C      10.64       4.44       1.94
C      10.48      13.79       8.36
C       6.01      12.76       9.86
C       6.17       3.41       3.44
C      10.99       6.94       1.78
C      10.13      13.04       5.97
C       5.65      10.25      10.02
C       6.52       4.16       5.83
C       4.52       6.40       0.74
C       7.65      14.20       6.10
C      12.13      10.79      11.06
C       9.00       2.99       5.70
C       2.85       8.00       1.36
C       9.33      13.04       4.82
C      13.80       9.19      10.44
C       7.32       4.15       6.98
S      10.56      12.39       0.37
S       6.09       4.80      11.43
N       3.74       5.37       1.09
N       8.43      14.24       7.18
N      12.91      11.82      10.71
N       8.22       2.95       4.62
O       9.47       4.55       2.40
O      11.65      13.32       8.42
O       7.17      12.65       9.40
O       5.00       3.88       3.38
O       8.25      14.42      11.71
O       3.92       1.08       2.55
O       8.39       2.77       0.09
O      12.73      16.11       9.25
O       2.22       3.28       1.69
O       9.95      14.43       9.34
O      14.42      13.91      10.11
O       6.70       2.76       2.46
O       9.79      11.14       0.58
O      11.34      12.65       1.61
O       6.86       6.06      11.22
O       5.31       4.54      10.19
O      15.32      16.79      11.01
O       5.80       0.89       0.09
O       1.33       0.41       0.79
O      10.85      16.31      11.71
O       6.25       8.62       0.26
O       5.92      13.85       3.85
O      10.40       8.57      11.54
O      10.73       3.35       7.95
O       4.03       4.80       7.89
O       8.14       8.10      10.16
O      12.62      12.39       3.91
O       8.51       9.09       1.64
