58

Zn       3.29       5.33       8.03
Zn       6.05       5.48       8.06
H       2.90       6.84       1.02
H       8.22       3.77       7.01
H       2.76       6.24      14.77
H       8.65       6.42       8.17
H       6.50       6.23      14.93
H       5.07       7.26      14.96
H       5.32       7.60       1.21
H       6.61       6.39       1.17
H       4.51       3.00      14.91
H       4.38       3.39       1.13
H       0.39       5.25       4.44
H       2.56       4.50      14.91
H       9.03       3.94       4.95
H       0.84       3.53       4.18
H       2.49       5.13       1.15
H       6.06       3.93       1.27
H       6.90       1.07       8.41
H       3.99       0.90       7.41
H       6.50       9.76       7.96
H       3.48       9.88       8.53
H       0.79       5.37       8.99
C       4.54       7.99       8.23
C       4.93       1.34       7.76
C       5.54      10.26       8.11
C       4.67       5.22      10.65
C       4.46       9.47       8.30
C       0.49       4.68       7.19
C       8.77       4.66       7.35
C       4.94       2.82       7.83
C       4.66       5.56       5.43
C       3.16       5.35      15.26
C       5.49       6.32      15.33
C       3.22       5.83       0.71
C       5.60       6.63       0.79
C       4.63       5.57       3.98
C       4.63       5.16      14.77
C       0.32       4.23       4.84
C       4.62       5.55       1.31
C       5.09       4.16       0.81
C       5.10       3.81      15.36
C       4.60       5.56       2.76
C       4.66       5.15      13.32
C       4.66       5.17      12.10
C       5.97       0.57       8.11
Br       6.95       3.37      14.79
N       1.26       5.12       8.12
N       8.10       5.59       7.89
O       3.46       7.35       8.43
O       5.68       7.47       7.96
O       3.56       4.98      10.07
O       5.78       5.50      10.10
O       3.82       3.39       7.63
O       6.05       3.42       8.08
O       3.56       5.79       6.02
O       5.79       5.32       5.97
O       1.03       4.16       6.10
