190

Zn       6.30      11.58      22.65
Zn       6.35       1.60      11.32
Zn       6.39       8.47       0.09
Zn       6.15      18.40      11.47
Zn       8.62      10.09       1.63
Zn       8.49       9.89      21.20
Zn       8.57       0.00      13.04
Zn       8.58      -0.03       9.80
H       5.59       5.90       2.90
H      13.73       1.40       8.64
H      10.73      13.81      21.52
H      11.57      15.16       3.55
H      10.90       3.96      10.13
H      11.53       4.90      15.03
H      13.42       5.43       1.41
H      13.10      15.47      12.99
H       4.67       6.48      19.25
H       6.81      14.86      13.53
H       4.71      16.51       7.82
H       1.05      12.77       3.49
H       1.06       2.73      14.95
H      10.97       7.82      21.18
H      10.84      17.96       9.83
H      13.62      11.33      19.97
C       6.94       7.57      20.16
C       7.71       5.47      17.04
C       8.02      15.46      17.18
C       7.76      15.59       5.60
C       8.48       6.30       4.65
C       7.90       6.23      18.25
C       7.88      16.56      16.26
C       7.94      16.30       6.83
C       6.34       5.73       3.67
C       5.53       6.15      18.67
C       7.13      15.02      14.56
C       7.66       7.45       2.51
C       5.57      16.20       7.24
C       6.10       4.78       4.64
C       5.34       5.24      17.64
C       7.05      13.99      15.46
C       5.39      15.32       6.18
C       2.49      10.15       0.48
C       2.44       0.04      11.95
C      12.56       9.46       0.04
C      12.30      19.49      11.51
C      14.48       7.98       0.36
C       6.95      17.60       8.77
C      14.19      17.97      11.88
C      13.10       8.16       0.24
C      12.82      18.17      11.74
C      13.41      10.56       0.05
C      13.38       0.52      11.52
C       7.45      12.60       2.45
C       7.64      12.40      20.22
C       7.35       2.45      13.94
C       7.59       2.46       8.83
C      14.78      10.42       0.43
C       7.46      17.38      13.88
C      14.74       0.37      11.91
C       0.25       9.12       0.31
C      -0.02      19.10      11.81
C       1.68       9.08       0.12
C       1.41      19.03      11.61
C       1.86      11.30       1.05
C       1.84       1.21      12.52
C       0.49      11.48       0.96
C       0.48       1.41      12.44
C       3.98      10.12       0.29
C       7.47      14.16      16.82
C       3.93       0.01      11.71
C      10.94       9.57      22.75
C      10.80      19.74      11.38
C       7.54       6.46       3.63
C       6.81       6.62      19.01
C       7.51      16.32      14.94
C       6.84      16.67       7.60
C       7.80      13.48      19.17
C       7.55      13.73       3.47
C       7.69       3.61       7.86
C       6.50      14.92       5.36
C       7.47       3.57      14.96
C       8.68      15.61      18.44
C       8.77      15.51       4.58
C       8.82       5.61       7.07
C       8.71       5.36      16.02
C       8.47      14.69      19.46
C       8.68      14.58       3.55
C       8.53       4.72       8.11
C       8.61       4.41      15.02
C       7.40      13.19      17.87
C       7.04       4.58       5.70
C       6.49      13.92       4.34
C       6.97       3.54       6.68
C       6.41       3.78      15.84
C       6.44       4.81      16.83
C       8.16       5.50       5.80
S      14.78      12.82       1.86
S       9.94       4.22      13.80
S       0.14       6.41       0.98
S      -0.17      16.41      12.54
S      14.79       2.78      13.32
S      11.75       6.70      22.79
S      11.58      16.86      11.49
S      12.82      11.88      21.88
S      12.94       1.98      10.54
S       9.00      15.03      21.15
S       9.99      14.46       2.32
S       9.07       5.02       9.81
Cl      10.07       6.88       4.41
Cl       3.75      14.89       5.85
Cl       4.56       4.01       4.59
Cl       3.70       4.80      17.34
Cl       6.82      11.57      17.63
Cl       5.22      12.75       4.25
Cl       6.11       2.07       6.38
Cl       5.14       2.62      15.77
Cl       2.22       7.66      22.01
Cl       2.02      17.71      10.70
Cl       2.85      12.43       1.89
Cl       9.48       6.42      18.90
Cl       2.86       2.32      13.35
Cl       7.91      18.17      16.85
Cl       9.52      16.49       7.48
Cl       9.86       6.93       7.41
Cl       9.97       6.54      15.93
Cl       9.90      16.80      18.65
Cl      10.00      16.71       4.52
Cl       6.40      12.52      14.80
O       7.52      10.07       0.01
O       6.54       2.37       9.52
O       4.58       9.07       0.65
O       4.32      18.97      11.99
O      10.52      10.14       0.99
O      10.37       9.29      21.63
O      10.47       0.14      12.42
O      10.25      19.46      10.25
O       6.97       7.20       1.46
O       6.16       7.39      21.16
O       6.65      17.18      12.92
O       7.48      -0.02      11.41
O       6.14      17.42       9.75
O       8.64      11.61      20.32
O       8.01      11.52       2.80
O       8.57       1.64       8.79
O       7.86       1.34      14.28
O       4.38      11.04      22.59
O       4.44       1.07      11.25
O       0.24      14.09       1.49
O      13.37      12.56       1.86
O       0.13      12.47       3.37
O       7.79       8.51      20.02
O       0.28       4.03      12.94
O      13.38       2.55      13.32
O       0.13       2.44      14.83
O      12.44       5.51       0.05
O      10.73       7.16       0.80
O      11.45       6.93      21.26
O      12.15      15.54      11.59
O      10.42      17.21      12.26
O      11.31      17.06       9.95
O      11.46      12.26      22.14
O       8.37       8.49       2.71
O      13.90      12.82      21.84
O      12.77      11.16      20.42
O      11.59       2.40      10.79
O      14.05       2.90      10.49
O      12.87       1.26       9.09
O       8.85      16.43      21.39
O       8.33      14.07      21.99
O      10.55      14.71      21.13
O       9.85      13.20       1.65
O      10.08      15.69       1.60
O       7.80      18.54       8.65
O      11.29      14.27       3.24
O       8.77       6.38      10.13
O       8.53       3.94      10.61
O      10.65       4.85       9.74
O       9.76       2.95      13.16
O      10.07       5.43      13.06
O      11.21       4.01      14.75
O       0.21       5.35      22.70
O       1.21       6.82       1.84
O      14.12       5.88       1.98
O       8.24      18.37      14.01
O       0.00      15.45      11.48
O       0.91      16.83      13.38
O      13.80      15.92      13.54
O       6.79      12.85       1.40
O       6.53      12.32      20.83
O       6.70       2.73      12.89
