136

Ag       1.62       3.28       6.35
Ag      13.04      14.07       7.30
H      11.23       3.91       9.26
H       3.43      13.45       4.40
H       9.52       5.27      10.51
H       5.15      12.09       3.15
H       7.80       6.54       9.19
H       6.86      10.82       4.47
H       9.78       5.20       5.60
H       4.89      12.16       8.05
H       7.28       6.01       5.66
H       7.39      11.34       7.99
H       6.84       7.10       7.01
H       7.83      10.25       6.64
H       5.95       7.30       4.68
H       8.72      10.05       8.98
H       5.14       8.32       2.60
H       9.53       9.03      11.05
H       5.51       9.81       0.65
H       9.16       7.54      13.00
H       7.97      15.94      13.04
H       6.70       1.42       0.62
H       9.29      11.83       0.19
H       5.38       5.53      13.47
H      10.12      10.79       2.27
H       4.55       6.56      11.38
H       9.97       6.94       3.43
H       4.70      10.41      10.23
H       1.40       5.27       3.45
H      13.27      12.08      10.21
H       3.65       5.81       4.43
H      11.02      11.54       9.23
H       4.04       8.08       5.42
H      10.63       9.28       8.23
H       3.22      10.29       6.02
H      11.45       7.06       7.64
H      11.79      11.98       6.06
H       2.88       5.38       7.59
H      10.48      13.33       5.19
H       4.19       4.03       8.46
H       9.45      12.97       6.61
H       5.22       4.39       7.05
H       9.07      13.42       2.87
H       5.60       3.94      10.79
H       3.95       2.08       1.87
H      10.72      15.28      11.78
H       2.27       3.13       3.41
H      12.40      14.23      10.24
H       7.48      14.39       6.76
H       7.19       2.96       6.89
C       5.57      14.36       9.35
C       9.10       2.99       4.30
C       6.62      13.57      10.22
C       8.05       3.79       3.44
C      10.50       4.53       8.74
C       4.17      12.83       4.91
C       9.54       5.27       9.42
C       5.13      12.09       4.24
C       8.60       5.99       8.69
C       6.07      11.37       4.97
C       8.66       5.97       7.29
C       6.01      11.39       6.36
C       9.67       5.22       6.69
C       5.00      12.13       6.97
C       7.68       6.70       6.42
C       6.99      10.66       7.23
C       7.90       8.28       4.61
C       6.77       9.08       9.05
C       6.60       7.97       4.12
C       8.07       9.38       9.54
C       6.15       8.54       2.95
C       8.52       8.81      10.70
C       6.96       9.43       2.21
C       7.71       7.92      11.45
C       6.51      10.05       1.01
C       8.16       7.31      12.64
C       7.32      10.90       0.30
C       7.34       6.45      13.35
C       8.64      11.17       0.76
C       6.03       6.19      12.89
C       9.11      10.59       1.92
C       5.56       6.76      11.73
C       8.29       9.73       2.69
C       6.38       7.63      10.96
C       8.74       9.15       3.91
C       5.93       8.21       9.74
C      10.09       9.46       4.46
C       4.58       7.89       9.20
C      11.13       8.49       4.43
C       3.54       8.87       9.23
C      10.94       7.20       3.86
C       3.73      10.16       9.79
C       1.59       6.26       3.87
C      13.08      11.10       9.79
C       2.86       6.57       4.42
C      11.81      10.79       9.23
C       3.08       7.82       4.97
C      11.59       9.54       8.69
C      12.41       8.80       4.98
C       2.26       8.56       8.68
C      12.61      10.08       5.56
C       2.05       7.28       8.10
C      11.61      11.02       5.58
C       3.06       6.34       8.07
C      10.34      10.71       5.03
C       4.33       6.65       8.63
C       9.50      12.94       5.51
C       5.17       4.41       8.15
C       8.43      13.80       4.89
C       6.24       3.56       8.76
C       8.35      13.93       3.50
C       6.32       3.42      10.15
C       4.03       1.94       2.95
C      10.63      15.42      10.71
C       3.11       2.55       3.79
C      11.56      14.80       9.86
C       7.48      14.46       5.67
C       7.19       2.89       7.98
N      10.56       4.50       7.39
N       4.11      12.85       6.26
N       3.19       2.43       5.14
N      11.48      14.92       8.52
O       6.09      15.15       8.52
O       8.57       2.20       5.13
O       4.36      14.13       9.61
O      10.31       3.22       4.04
O       8.39       7.77       5.78
O       6.27       9.59       7.88
O       9.29      11.60       5.03
O       5.38       5.76       8.62
F       6.99      14.32      11.31
F       7.68       3.04       2.35
F       6.15      12.38      10.69
F       8.52       4.98       2.97
F       7.77      13.29       9.52
F       6.90       4.07       4.14
