116

Zn       5.96       8.05       9.65
Zn       8.80       8.05       9.66
H       5.25       7.51      13.82
H       9.48       8.29      13.94
H       6.56       1.18      11.60
H       8.32       1.17      11.50
H       1.26      10.22       9.96
H      13.64      10.19       9.65
H      13.59       7.01       7.81
H       1.22       7.14       7.72
H      13.51       8.77       7.67
H       1.15       8.90       7.70
H      13.64       5.92       9.84
H       1.20       5.91       9.88
H      13.50       9.58      11.29
H       1.14       9.29      11.46
H       5.24       7.82       5.44
H       9.55       8.01       5.37
H       9.48       1.11       9.35
H       5.18       1.12       9.59
H       6.64      14.93      11.61
H       8.40      14.93      11.52
H      14.25       8.16      12.64
H      13.99       6.74      13.65
H      11.50       7.04      13.50
H      12.31       8.44      14.24
H      11.72       8.53      12.56
H       2.48       5.00      11.56
H       0.81       4.85      12.21
H       2.59       4.63      14.01
H       3.14       6.28      13.65
H       1.51       6.00      14.32
H       5.56       5.39      17.17
H       4.70       5.35      15.61
H       2.59       6.14      16.77
H       3.17       4.60      17.45
H       3.46       6.13      18.33
H       9.39      10.14      17.09
H      10.37       9.86      15.63
H      12.21       8.87      17.03
H      11.81      10.52      17.59
H      11.22       9.11      18.50
C       7.40      10.65       9.63
C       7.29       7.67      18.01
C       6.18       7.77       3.50
C       8.55       7.86       3.46
C       6.17       7.84       4.88
C       8.60       7.94       4.84
C       7.39       7.93       5.55
C       7.36       7.78       2.74
C       6.11      15.33       8.96
C       8.64      15.33       8.83
C       8.57       0.78       8.83
C       6.02       0.79       8.97
C       7.34       3.99       9.64
C       7.41      14.76       9.60
C       7.33       1.32       9.58
C       7.39       8.01      12.25
C       7.41       0.77      11.03
C       7.49      15.33      11.05
C       7.34       2.77       9.60
C       7.41      13.32       9.60
C       7.40      12.10       9.62
C      13.96       9.38      10.31
C       0.80       9.33      10.41
C      13.94       7.95       8.25
C       0.80       8.01       8.24
C      13.44       8.05       9.72
C       1.33       8.06       9.69
C       0.85       6.79      10.44
C      13.96       6.76      10.47
C       2.77       8.07       9.68
C      11.99       8.03       9.71
C       7.33       5.44       9.66
C       7.41       8.00       7.05
C       6.17       7.64      14.40
C       8.55       8.08      14.47
C       6.14       7.53      15.79
C       8.53       7.98      15.86
C       7.32       7.71      16.54
C       7.37       7.92      13.74
C       7.33       7.72       1.26
C      13.54       7.35      12.86
C      12.19       7.87      13.31
C       1.73       5.47      12.23
C       2.27       5.61      13.63
C       4.72       5.83      16.61
C       3.41       5.67      17.34
C      10.17       9.50      16.65
C      11.43       9.50      17.49
N       6.52       8.60      18.63
N       8.00       6.71      18.64
N       6.55       8.64       0.63
N       8.04       6.75       0.66
N       3.93       8.07       9.65
N      10.83       8.02       9.68
O       6.26      10.10       9.66
O       8.54      10.09       9.62
O       6.26       7.99      11.66
O       8.53       8.09      11.69
O       6.18       5.98       9.63
O       8.46       6.01       9.69
O       6.28       8.03       7.63
O       8.55       8.01       7.62
O      13.38       6.48      11.71
O       1.43       6.79      11.73
O       4.96       7.25      16.44
O       9.68       8.14      16.60
F       4.99       7.65       2.85
F       9.72       7.91       2.76
F       5.82       1.27       7.68
F       8.63       1.27       7.53
F       5.93      14.85       7.70
F       8.69      14.84       7.56
F       9.79      14.88       9.47
F       5.03      14.90       9.72
