116

Al       6.64      10.58       7.78
Al       3.38       3.49       0.00
Al       3.31      10.63       7.78
Al       0.06       3.58       0.00
H       6.65       8.87      11.68
H       2.98       6.86       2.47
H       3.32      12.35       3.88
H       6.31       0.21      13.09
H       5.09       9.44      12.27
H       3.03       5.56       3.64
H       1.76      11.78       3.28
H       6.36       1.51      11.91
H       5.17       7.86      13.99
H       3.01       7.13       5.38
H       1.84      13.35       1.56
H       6.34      14.08      10.17
H       0.05       7.25      13.37
H       2.94       8.43       4.20
H       3.38      13.97       2.18
H       6.27      12.78      11.35
H       0.10       7.00       9.98
H       5.17       7.86       1.56
H       3.43       0.07       5.57
H       1.84      13.35      13.99
H       0.12       5.40      11.70
H       5.09       9.44       3.28
H       3.45       1.67       3.85
H       1.76      11.78      12.27
H       3.01       7.13      10.17
H       0.12       5.40       3.85
H       6.34      14.08       5.38
H       3.45       1.67      11.70
H       2.94       8.43      11.35
H       5.29       4.70       4.49
H       6.27      12.78       4.20
H       1.96       2.37      11.06
H       2.98       6.86      13.09
H       5.27       6.28       6.21
H       6.31       0.21       2.47
H       1.94       0.79       9.34
H       3.03       5.56      11.91
H       0.10       7.00       5.57
H       6.36       1.51       3.64
H       3.43       0.07       9.98
H       5.27       6.28       9.35
H       0.05       7.25       2.18
H       1.95       0.79       6.21
H       3.38      13.97      13.37
H       5.29       4.70      11.06
H       6.65       8.87       3.88
H       1.96       2.37       4.49
H       3.32      12.35      11.67
H       1.68       8.83       7.78
H       1.77       5.31      15.55
H       5.01      12.38       7.78
H       5.10       1.76      15.55
C       1.64      12.24       9.57
C       1.70       1.91       1.80
C       4.97       8.98       5.98
C       5.03       5.16      13.75
C       1.64      12.24       5.98
C       1.70       1.91      13.75
C       4.97       8.98       9.57
C       5.03       5.16       1.80
C       5.64       8.54      11.95
C       3.53       6.50       3.34
C       2.31      12.67       3.60
C       0.21       0.57      12.21
C       5.67       7.48      13.08
C       3.51       7.54       4.49
C       2.35      13.73       2.47
C       0.19      13.68      11.07
C       5.74       6.70      10.26
C       5.67       7.48       2.47
C       2.41       0.38       5.30
C       2.35      13.73      13.08
C       3.51       7.54      11.07
C       5.75       5.64       4.16
C       0.19      13.68       4.49
C       2.42       1.43      11.39
C       4.95       7.95      10.70
C       4.98       6.18       2.93
C       1.62      13.26       4.85
C       1.65       0.89      12.62
C       4.98       6.18      12.62
C       4.95       7.95       4.85
C       1.65       0.89       2.93
C       1.62      13.26      10.70
C       5.75       5.64      11.39
C       5.64       8.54       3.60
C       2.42       1.43       4.16
C       2.31      12.67      11.95
C       3.53       6.50      12.21
C       5.74       6.70       5.30
C       0.21       0.58       3.34
C       2.41       0.38      10.25
O       2.78      11.87       6.41
O       0.59       2.33      14.19
O       6.11       9.34       9.14
O       3.92       4.74       1.36
O       0.52      11.83       9.13
O       2.85       2.25       1.37
O       3.85       9.38       6.42
O       6.18       4.82      14.18
O       0.52      11.83       6.42
O       2.85       2.25      14.18
O       3.85       9.38       9.13
O       6.18       4.82       1.37
O       6.11       9.34       6.41
O       3.92       4.74      14.19
O       2.78      11.87       9.14
O       0.59       2.33       1.36
O       1.66       9.80       7.78
O       1.73       4.34       0.00
O       4.99      11.41       7.78
O       5.06       2.73       0.00
