126

Cu      -2.72      -0.35      12.20
Cu       1.87       2.93       7.72
Cu      -0.43      -2.59       7.12
Cu       5.02       8.15       1.32
Cu       0.43       4.87       5.80
Cu       2.73      10.39       6.40
H      -0.40      10.72       1.86
H       1.89       4.06       3.31
H      -2.69       8.64       8.35
H       2.70      -2.92      11.66
H       0.41       3.74      10.21
H       4.99      -0.83       5.16
H       1.33      12.45       2.19
H       3.62       3.48       1.65
H      -0.96       7.49       9.69
H       0.97      -4.64      11.33
H      -1.32       4.33      11.87
H       3.26       0.31       3.83
H       3.48      12.35       0.90
H       5.77       2.40       2.37
H       1.19       8.65      10.25
H      -1.18      -4.55      12.62
H      -3.47       5.40      11.15
H       1.11      -0.84       3.27
H       1.49       2.74      12.71
H      -0.80       1.83       4.78
H       3.78      -4.58       9.54
H       0.81       5.06       0.80
H       3.10       5.97       8.73
H      -1.48      12.39       3.98
H       0.87       0.98      11.57
H      -1.42       1.72       6.88
H       3.16      -2.71       8.58
H       1.43       6.82       1.95
H       3.72       6.08       6.64
H      -0.86      10.51       4.93
H       0.29      -1.48      10.71
H      -2.00       2.21       9.45
H       2.59      -0.73       6.88
H       2.01       9.28       2.81
H       4.30       5.60       4.07
H      -0.29       8.53       6.64
H      -0.27      -0.24       9.57
H       4.32       0.60       8.94
H       2.02      -0.36       8.53
H       2.57       8.04       3.95
H      -2.02       7.21       4.58
H       0.28       8.17       4.99
C      -0.42       1.83      13.07
C       4.17       2.60       5.40
C       1.87      -4.43       8.56
C       2.72       5.98       0.45
C      -1.87       5.20       8.12
C       0.43      12.24       4.95
C       0.68       9.64       0.34
C       2.97       3.28       5.00
C      -1.61      10.49       8.18
C       1.62      -1.84      13.18
C      -0.67       4.52       8.52
C       3.91      -2.69       5.34
C       0.51      10.69       1.26
C       2.80       3.56       3.62
C      -1.78       9.16       8.63
C       1.79      -2.89      12.25
C      -0.50       4.25       9.89
C       4.08      -1.36       4.89
C       1.50      11.66       1.45
C       3.79       3.24       2.70
C      -0.79       8.52       9.37
C       0.80      -3.85      12.06
C      -1.49       4.57      10.82
C       3.09      -0.72       4.15
C       2.70      11.61       0.73
C       4.99       2.63       3.10
C       0.41       9.16       9.69
C      -0.40      -3.81      12.79
C      -2.70       5.17      10.42
C       1.89      -1.36       3.83
C       0.58       2.80      13.31
C       5.17       2.32       4.43
C       2.87      -5.13       9.29
C       1.72       5.00       0.21
C      -2.87       5.48       9.08
C      -0.57      12.93       4.23
C      -0.13       0.90      12.01
C       4.45       2.15       6.73
C       2.16      -3.05       8.29
C       2.43       6.91       1.50
C      -2.15       5.65       6.78
C       0.14      10.85       5.23
C      -0.56      -0.84      10.44
C       4.02       1.65       9.03
C       1.73      -0.82       7.57
C       2.86       8.65       3.08
C      -1.72       6.15       4.49
C       0.57       8.62       5.95
C      -1.73      -1.74      10.04
C       2.86       1.76      10.00
C       0.56      -0.02       6.99
C       4.03       9.54       3.48
C      -0.56       6.04       3.52
C       1.74       7.83       6.53
N      -0.95       0.01      11.55
N       3.63       2.19       7.73
N       1.34      -2.21       7.76
N       3.25       7.79       1.97
N      -1.33       5.62       5.79
N       0.96      10.01       5.76
O      -0.25       8.68       0.22
O       2.04       3.66       5.89
O      -2.54      11.07       7.41
O       2.55      -0.88      13.30
O       0.26       4.15       7.63
O       4.84      -3.27       6.11
O       4.06      -1.62      10.73
O       1.77       2.30       9.55
O      -0.53      -0.68       6.75
O      -1.76       9.43       2.79
O       0.53       5.51       3.96
O       2.83       8.48       6.77
O      -1.63      -2.54       9.08
O       2.96       1.33      11.17
O       0.67       1.20       6.77
O       3.93      10.34       4.43
O      -0.66       6.47       2.35
O       1.63       6.60       6.74
