196

Zn       7.10      20.35      11.29
Zn       4.11      20.33      11.16
Zn       8.20      10.22       0.07
Zn       3.92      10.03      22.39
H       2.89      16.97       5.35
H       9.01       3.01      17.25
H       3.29       3.63       5.72
H       8.68      16.75      16.82
H       2.82       6.75      16.60
H       9.16      13.37       6.00
H       2.30      13.32      16.73
H       9.75       6.92       5.77
H      12.21       3.24      10.57
H      -0.22      17.00      11.89
H      11.44      16.95      11.61
H       0.55       3.29      10.83
H      12.52      13.20       1.62
H      -0.40       7.01      20.94
H      11.24       7.01      20.96
H       0.88      13.20       1.60
H       8.75       1.84      15.91
H       3.19      18.22       6.61
H       7.67      18.63      14.16
H       4.31       1.68       8.33
H       9.02      12.31       4.56
H       3.02       7.86      18.01
H       8.79       8.76       3.07
H       3.33      11.42      19.38
H       4.44       3.54      13.43
H       7.56      16.65       9.09
H       3.51      16.97      13.89
H       8.49       3.28       8.60
H       4.69      14.01       2.06
H       7.37       6.15      20.46
H       4.57       7.28       2.86
H       7.48      13.07      19.66
H       3.05       4.70      13.82
H       8.88      15.39       8.79
H       1.42      14.58      15.03
H      10.61       5.66       7.48
H       3.10      14.80       2.66
H       8.83       5.12      19.97
H       2.43       4.89       4.01
H       9.56      15.52      18.54
H       8.24      18.14      10.76
H       3.76       2.09      11.69
H       9.01       1.93      10.21
H       2.98      18.31      12.25
H       8.02       8.10      21.33
H       4.12      12.15       1.12
H       9.33      12.15       1.31
H       2.79       8.05      21.23
C       6.43       1.66       9.21
C       5.56      18.60      13.26
C       5.63      18.38       9.54
C       6.36       1.83      12.94
C       5.45      11.47      20.29
C       6.65       8.79       2.19
C       5.45       7.90      20.91
C       6.65      12.33       1.58
C       7.23       2.71      15.15
C       4.72      17.39       7.38
C       6.69      17.33      15.11
C       5.29       2.99       7.41
C       7.46      13.14       3.83
C       4.58       7.00      18.72
C       7.76       7.55       4.07
C       4.31      12.72      18.42
C       6.27       2.73      14.12
C       5.71      17.42       8.39
C       5.54      17.56      14.30
C       6.45       2.72       8.19
C       6.51      13.18       2.78
C       5.54       6.98      19.74
C       6.61       7.80       3.28
C       5.46      12.49      19.22
C       5.16       3.58      14.24
C       6.81      16.57       8.30
C       4.39      16.79      14.50
C       7.61       3.49       8.00
C       5.38      13.99       2.90
C       6.65       6.13      19.63
C       5.44       7.07       3.49
C       6.61      13.27      19.03
C       4.99       4.44      15.33
C       6.98      15.68       7.23
C       4.35      15.77      15.45
C       7.65       4.51       7.06
C       5.16      14.79       4.03
C       6.83       5.29      18.54
C       5.38       6.05       4.45
C       6.64      14.29      18.08
C       5.98       4.44      16.37
C       5.98      15.65       6.20
C       5.50      15.54      16.28
C       6.50       4.77       6.25
C       6.14      14.80       5.07
C       5.84       5.29      17.50
C       6.53       5.80       5.26
C       5.49      14.51      17.26
C       7.11       3.57      16.27
C       4.84      16.49       6.29
C       6.67      16.34      16.11
C       5.32       4.00       6.41
C       7.30      13.97       4.98
C       4.70       6.15      17.59
C       7.72       6.56       5.09
C       4.32      13.72      17.42
C       3.85       5.31      15.47
C       8.11      14.80       7.11
C       3.20      14.94      15.64
C       8.82       5.33       6.87
C       3.98      15.59       4.19
C       7.97       4.43      18.39
C       4.21       5.23       4.64
C       7.79      15.13      17.90
C       3.83      16.42       5.28
C       8.10       3.60      17.30
C       4.18       4.25       5.59
C       7.81      16.12      16.95
C       3.72       6.13      16.56
C       8.26      13.98       6.03
C       3.18      13.95      16.59
C       8.86       6.32       5.92
C       9.86      19.14      11.11
C       2.14       1.10      11.34
C      10.63       1.02      10.79
C       1.36      19.22      11.66
C       9.67       9.00      21.95
C       2.45      11.22       0.57
C      10.95      11.21       0.64
C       1.17       9.01      21.89
C      12.04       1.10      10.91
C      -0.05      19.14      11.55
C      11.26      19.09      11.27
C       0.73       1.15      11.18
C      12.36      11.26       0.63
C      -0.24       8.95      21.91
C      11.08       8.94      21.94
C       1.05      11.27       0.61
C      11.96      20.33      11.16
C      -0.74      20.35      11.29
C      13.05      10.17       0.07
C       0.35      10.17       0.05
C      12.77       2.33      10.78
C      -0.77      17.91      11.68
C      11.99      17.89      11.52
C       0.00       2.35      10.93
C      13.08      12.36       1.19
C      -0.96       7.84      21.36
C      11.80       7.84      21.38
C       0.33      12.37       1.18
N       9.17      20.30      10.96
N       2.82      -0.06      11.49
N      10.26      10.17       0.08
N       1.86      10.06      22.43
O       7.52       1.29       9.77
O       4.46      18.95      12.69
O       6.70      19.13      12.95
O       5.29       1.12       9.51
O       4.50      18.81       9.88
O       7.50       1.42      12.58
O       5.25       1.52      12.36
O       6.75      18.71      10.09
O       6.55      11.18      20.86
O       5.56       9.17       1.67
O       7.82       9.21       1.81
O       4.31      10.95      20.61
O       4.32       8.25      21.36
O       7.80      11.93       1.21
O       5.60      12.00       0.93
O       6.54       8.32      21.43
O       8.26       1.83      15.07
O       3.68      18.26       7.45
O       7.83      18.05      14.96
O       4.15       2.29       7.55
O       8.51      12.29       3.73
O       3.55       7.89      18.82
O       8.92       8.22       3.90
O       3.17      12.00      18.58
O       2.86       5.34      14.53
O       9.09      14.77       8.06
O       2.14      15.20      14.81
O       9.88       5.05       7.70
O       2.96      15.54       3.28
O       8.98       4.42      19.31
O       3.16       5.51       3.80
O       8.85      14.88      18.74
O       9.16      17.99      11.11
O       2.84       2.25      11.34
O       9.94       2.14      10.51
O       2.05      18.10      11.94
O       9.03       7.98      21.39
O       3.10      12.24       1.13
O      10.33      12.24       1.21
O       1.79       7.98      21.32
