118

Zn      10.47       6.56       9.25
Zn       7.73       6.78       9.81
H      12.08       6.68      13.35
H      16.23       5.91      15.08
H       4.17       4.58      16.15
H      11.76       5.91       3.39
H      11.42       7.66       3.19
H      12.22       5.70       0.97
H      11.73       7.37       0.69
H      13.66       8.19       2.11
H       1.78       7.16       0.81
H       1.66       6.52       2.44
H      13.64      13.04      10.74
H       6.10       6.59       5.77
H      10.67       0.74      10.85
H      14.15      13.44       8.33
H      11.16       1.11       8.41
H      12.84       1.92      10.09
H      13.67       1.34       8.63
H      13.63       0.33      10.09
H       4.21       0.25       9.73
H       7.12      12.55      10.07
H       4.58      -0.08       7.29
H       7.57      12.27       7.60
H       7.92       5.83      13.92
H       5.44      11.34       8.56
H       5.17      11.93       6.90
H       4.62      12.89       8.29
H      15.37       3.92      12.19
H       4.23       5.09      12.10
H       3.74       2.73      10.19
H       5.04       3.92       9.98
H       6.05       3.31      12.17
H       5.91       1.89      11.13
H       4.75       2.12      12.46
H      10.32       6.59       5.02
H      15.37       9.95       7.67
H      13.94       8.88       7.58
H       4.30       8.16       6.63
H       2.89       7.09       6.52
H      14.22       8.78       5.01
H       3.26       8.21       4.32
H       3.18       9.81       5.09
H       6.56       4.33      16.98
H       7.15       4.28      15.30
H       5.61       6.60      16.62
H       6.17       6.61      14.95
H       4.74       4.56      14.47
C       8.85       4.09       9.50
C       3.23       6.32      10.08
C       4.61       6.64      10.21
C      13.59       6.86       9.08
C       9.70       6.45      12.05
C       8.53       6.72       6.99
C      11.26       6.45      14.02
C       6.93       6.56       5.06
C      11.47       6.34      15.40
C       6.68       6.45       3.69
C      10.40       6.03      16.28
C       9.29       9.25       9.61
C       7.74       6.43       2.76
C       9.11       5.82      15.74
C       9.07       6.47       3.24
C       8.91       5.95      14.36
C       9.31       6.57       4.62
C       9.97       6.27      13.51
C       8.24       6.62       5.52
C       7.50       6.42       1.31
C      10.64       5.97      17.74
C      12.80       6.47      15.89
C       9.38      10.69       9.62
C       5.33       6.41       3.23
C       6.90       4.95      16.14
C       5.82       5.95      15.76
C       4.55       5.21      15.33
C      11.39       6.68       2.68
C      12.22       6.71       1.41
C      13.65       7.17       1.71
C      10.90      -0.09      10.17
C      11.74       0.39       8.99
C      13.04       1.03       9.48
C       8.74       2.66       9.56
C       7.13      13.40       9.37
C       6.78      12.95       7.96
C       5.42      12.24       7.93
C       3.59       4.42      11.51
C       4.42       3.42      10.73
C       5.33       2.64      11.68
C      15.04       8.90       7.64
C       3.21       8.15       6.50
C       2.83       8.77       5.15
C       9.53      13.30       9.56
C       8.56       0.04       9.65
C       8.65       1.44       9.61
C       9.45      11.91       9.61
C      14.94       7.19       9.34
N      10.20       4.89      18.42
N       7.96       7.49       0.61
N       6.83       5.37       0.78
N      11.31       7.01      18.27
N      12.48       6.56       8.86
N       5.75       6.86      10.27
N      13.92       6.54      16.22
N       4.21       6.40       2.90
O      10.03       4.56       9.45
O      10.03       6.38       2.30
O      11.88      13.16       9.75
O       6.21       0.17       9.44
O      15.19       5.24      10.67
O      15.45       8.38       8.95
O       8.17       8.76       9.97
O       7.75       4.74       9.50
O      10.33       8.62       9.24
O      10.71       6.63      11.29
O       7.55       6.98       7.76
O       8.48       6.40      11.68
O       9.74       6.52       7.34
O       8.12       5.56      16.63
