76

Zn       2.78       5.36       8.49
Zn       5.60       5.38       8.72
H       2.06       6.01      15.51
H       6.34       4.55       1.73
H       2.30       5.96       1.98
H       6.05       4.47      15.19
H       2.43       5.80       4.48
H       5.92       4.74      12.69
H       6.38       1.13       8.19
H       2.00       9.61       9.02
H       6.16       9.70       7.97
H       2.22       1.04       9.25
H       0.81       7.22       9.22
H       7.57       3.53       8.00
H       1.18       6.98      13.72
H       0.25       4.82      13.08
H       1.07       5.05      11.51
H      -0.22       6.17      12.01
H       7.25       3.69       3.54
H       8.10       5.91       4.10
H       8.62       4.61       5.22
H       7.29       5.70       5.69
H       6.81       7.74       9.33
H       7.85       9.58      10.29
H      -0.64       9.29       9.00
H      -0.37       8.65      10.64
H       1.56       3.01       7.88
H       0.53       1.17       6.93
H       8.74       2.11       6.57
H       9.01       1.46       8.22
C       4.29       2.72       8.81
C       4.08       8.02       8.40
C       5.26      10.24       8.26
C       3.12       0.50       8.96
C       4.08       9.51       8.49
C       4.29       1.23       8.73
C       8.42       6.53       9.08
C      -0.05       4.22       8.14
C       0.13       6.41       8.95
C       8.24       4.34       8.26
C       4.38       5.11       6.02
C       4.00       5.59      11.19
C       4.46       5.13       4.52
C       3.92       5.49      12.68
C       5.59       4.74       3.74
C       2.80       5.88      13.48
C       5.49       4.82       2.35
C       2.90       5.74      14.87
C       4.32       5.27       1.71
C       4.05       5.22      15.49
C       3.20       5.62       2.48
C       5.15       4.86      14.70
C       3.29       5.54       3.86
C       5.07       5.00      13.32
C       5.47       0.55       8.38
C       2.91      10.19       8.84
C       0.63       5.57      12.36
C       7.75       5.17       4.85
C       8.55       8.84       9.88
C      -0.18       1.91       7.34
N       4.19       5.47       0.32
N       4.18       5.00      16.87
N       0.72       5.29       8.50
N       7.66       5.46       8.71
N       1.62       6.47      12.96
N       6.79       4.21       4.28
N       7.81       7.64       9.56
N       0.56       3.11       7.66
O       3.16       3.30       8.78
O       5.22       7.44       8.44
O       5.42       3.31       8.91
O       2.96       7.43       8.31
O       3.21       5.11       6.53
O       5.17       5.61      10.69
O       5.46       5.11       6.70
O       2.92       5.61      10.52
