62

Zn       3.14       5.38       7.60
Zn       5.93       5.37       7.74
H       3.18       6.92       3.37
H       5.89       3.82      11.96
H       2.04       7.84      14.08
H       7.02       2.90       1.26
H       6.66       9.62       7.91
H       2.40       1.13       7.43
H       6.67       1.15       7.87
H       2.39       9.59       7.47
H       8.06       3.84       6.28
H       1.00       6.91       9.06
H       8.10       6.90       9.09
H       0.96       3.84       6.25
C       4.53       7.97       7.71
C       4.53       2.78       7.63
C       2.64       7.12      14.63
C       6.43       3.63       0.71
C       5.73      10.17       7.81
C       3.33       0.57       7.53
C       5.75       0.59       7.78
C       3.32      10.16       7.56
C       4.54       1.28       7.64
C       4.53       9.46       7.69
C       8.65       4.52       6.90
C       0.41       6.23       8.44
C       8.68       6.22       8.46
C       0.38       4.52       6.88
C       4.48       5.35      10.30
C       4.58       5.40       5.04
C       5.56       4.54       2.85
C       3.50       6.20      12.48
C       4.67       5.40       3.53
C       4.39       5.35      11.80
C       3.86       6.28       2.82
C       5.20       4.47      12.52
C       3.93       6.36       1.42
C       5.13       4.39      13.91
C       4.79       5.47       0.71
C       4.27       5.28      14.63
C       5.60       4.54       1.43
C       3.46       6.21      13.91
C       3.16       7.31       0.67
C       5.91       3.43      14.67
C       6.43       3.67       3.57
C       2.63       7.08      11.77
C       2.34       8.25       1.37
C       6.73       2.50      13.97
N       1.08       5.38       7.64
N       7.99       5.37       7.69
N       7.18       2.94       4.10
N       1.89       7.80      11.24
N       1.68       9.00       1.97
N       7.39       1.74      13.36
O       3.40       7.38       7.63
O       5.67       3.36       7.71
O       3.40       3.37       7.54
O       5.66       7.38       7.80
O       3.38       5.36       9.68
O       5.68       5.39       5.66
O       3.41       5.43       5.52
O       5.65       5.32       9.81
