62

Zn      10.83       9.12       6.88
Zn      10.83       6.71       9.03
Zn       8.42       6.96       6.89
Zn       8.66       9.08       9.26
H       7.88       0.06       9.18
H      16.41       5.35       6.31
H       2.46       4.51       5.32
H       1.19       4.63       4.08
H       2.46       5.88       4.18
H      11.50      15.86       6.87
H      17.67       8.90       9.13
H      11.78       9.25       1.02
H      10.62      10.60       1.15
H      13.06      11.32      14.93
H      12.73      11.34       0.02
H      14.21       9.97      14.80
H      16.41       6.71       5.16
C       9.90       7.75      11.61
C       9.46       8.24       2.98
C      14.74       7.69       7.70
C       9.53       8.16       4.42
C      17.37       7.55       7.53
C       2.05       8.27       8.39
C       3.44       8.23       8.34
C      15.95       7.62       7.62
C       4.66       8.20       8.29
C      13.30       7.78       7.80
C       6.08       8.13       8.21
C      10.02      14.21       8.35
C       9.54       4.37       7.80
C       9.90      11.56       8.21
C       9.47       2.93       7.72
C       9.30       0.32       7.62
C      10.08      15.61       8.43
C      11.16       9.96       0.45
C      13.69      10.63      15.50
C       7.48       6.82       0.31
C      17.05       6.00       5.71
C       1.82       5.21       4.77
C       9.38       1.71       7.68
C       9.96      13.00       8.29
C       9.97       7.67      13.05
C      10.10       7.54      15.67
C       9.33       8.40       0.36
C       9.39       8.31       1.77
C      10.03       7.62      14.26
N       6.71       6.11       0.84
O       9.71       7.96       8.01
O      10.42       4.84       8.61
O       9.12      10.98       9.03
O       8.72       5.01       7.07
O      10.63      11.01       7.31
O      11.89       9.07      15.72
O       1.81       6.75       6.60
O      12.74       8.65       7.07
O       6.74       8.86       9.04
O      10.64       6.93      10.97
O       8.72       7.37       4.98
O       9.10       8.62      11.13
O      10.42       8.91       4.97
O      12.75       6.97       8.61
O       6.57       7.35       7.32
