196

Cd       8.30       4.96      13.75
Cd       0.00       4.40       4.40
Cd       8.30      13.75       4.96
Cd       0.00      14.32      14.32
H       7.65      11.65      16.37
H       7.65       7.01      16.42
H       7.65       7.06       2.35
H       7.65      11.71       2.30
H       0.65       2.30      11.71
H       0.65      16.42       7.01
H       0.65       2.35       7.06
H       0.65      16.37      11.65
H       1.09       9.47      16.57
H       1.09       7.22      18.61
H       1.09       9.25       2.14
H       1.09      11.50       0.11
H       7.21       0.11      11.50
H       7.21      18.61       7.22
H       7.21       2.14       9.25
H       7.21      16.57       9.47
H       3.30      11.44      12.75
H       3.30       3.39      16.64
H       3.30       7.28       5.97
H       3.30      15.33       2.08
H       5.00       2.08      15.33
H       5.00      16.64       3.39
H       5.00       5.97       7.28
H       5.00      12.75      11.44
H       2.51      13.04      12.88
H       2.51       3.52      15.04
H       2.51       5.68       5.84
H       2.51      15.19       3.68
H       5.78       3.68      15.19
H       5.78      15.04       3.52
H       5.78       5.84       5.68
H       5.78      12.88      13.04
H       1.71      11.71      12.01
H       1.71       2.65      16.37
H       1.71       7.01       6.71
H       1.71      16.07       2.35
H       6.59       2.35      16.07
H       6.59      16.37       2.65
H       6.59       6.71       7.01
H       6.59      12.01      11.71
H       4.56      11.08      14.84
H       4.56       5.48      16.99
H       4.56       7.63       3.88
H       4.56      13.24       1.72
H       3.73       1.72      13.24
H       3.73      16.99       5.48
H       3.73       3.88       7.63
H       3.73      14.84      11.08
H       6.46       9.50      14.39
H       6.47       5.04      18.58
H       6.47       9.22       4.32
H       6.47      13.68       0.14
H       1.83       0.14      13.68
H       1.83      18.58       5.04
H       1.83       4.32       9.22
H       1.83      14.39       9.50
H       3.67       6.24      14.09
H       3.67       4.73       3.12
H       3.67      12.48       4.63
H       3.67      13.99      15.60
H       4.63      15.60      13.99
H       4.63       3.12       4.73
H       4.63       4.63      12.48
H       4.63      14.09       6.24
H       1.77       7.83      14.43
H       1.77       5.07       1.53
H       1.77      10.89       4.29
H       1.77      13.65      17.18
H       6.53      17.18      13.65
H       6.53       1.53       5.07
H       6.53       4.29      10.89
H       6.53      14.43       7.83
C       0.19      11.36      15.75
C       0.19       6.39      16.71
C       0.19       7.36       2.97
C       0.19      12.33       2.00
C       8.10       2.00      12.33
C       8.10      16.71       6.39
C       8.10       2.97       7.36
C       8.10      15.75      11.36
C       1.04      10.29      15.88
C       1.04       6.52      17.78
C       1.04       8.42       2.84
C       1.04      12.20       0.93
C       7.25       0.93      12.20
C       7.25      17.78       6.52
C       7.25       2.84       8.42
C       7.25      15.88      10.29
C       1.66      11.54      14.13
C       1.66       4.77      16.54
C       1.66       7.18       4.59
C       1.66      13.95       2.18
C       6.63       2.18      13.95
C       6.63      16.54       4.77
C       6.63       4.59       7.18
C       6.63      14.13      11.54
C       2.34      11.95      12.87
C       2.34       3.51      16.12
C       2.34       6.76       5.84
C       2.34      15.20       2.59
C       5.95       2.59      15.20
C       5.95      16.12       3.51
C       5.95       5.84       6.76
C       5.95      12.87      11.95
C       3.07       9.53      14.64
C       3.07       5.29      18.55
C       3.07       9.19       4.07
C       3.07      13.43       0.17
C       5.23       0.17      13.43
C       5.23      18.55       5.28
C       5.23       4.07       9.19
C       5.23      14.64       9.53
C       4.38      10.02      14.65
C       4.38       5.29      18.05
C       4.38       8.69       4.07
C       4.38      13.43       0.67
C       3.92       0.67      13.43
C       3.92      18.05       5.29
C       3.92       4.07       8.69
C       3.92      14.65      10.02
C       5.43       9.15      14.42
C       5.43       5.06       0.21
C       5.43       9.57       4.30
C       5.43      13.66      18.50
C       2.86      18.50      13.66
C       2.86       0.21       5.06
C       2.86       4.30       9.57
C       2.86      14.42       9.14
C       5.18       7.78      14.22
C       5.18       4.87       1.58
C       5.18      10.94       4.49
C       5.18      13.85      17.14
C       3.12      17.14      13.85
C       3.12       1.58       4.87
C       3.12       4.49      10.94
C       3.12      14.22       7.78
C       3.86       7.30      14.25
C       3.86       4.90       2.06
C       3.86      11.42       4.46
C       3.86      13.82      16.65
C       4.43      16.66      13.82
C       4.43       2.06       4.90
C       4.43       4.46      11.42
C       4.43      14.25       7.30
C       2.80       8.17      14.45
C       2.80       5.09       1.18
C       2.80      10.54       4.27
C       2.80      13.63      17.53
C       5.49      17.53      13.63
C       5.49       1.18       5.09
C       5.49       4.27      10.54
C       5.49      14.45       8.17
C       6.32       6.83      14.00
C       6.32       4.64       2.53
C       6.32      11.89       4.72
C       6.32      14.08      16.19
C       1.98      16.19      14.08
C       1.98       2.53       4.64
C       1.98       4.72      11.89
C       1.98      14.00       6.83
N       0.59      12.12      14.66
N       0.59       5.31      15.95
N       0.59       6.59       4.05
N       0.59      13.41       2.76
N       7.70       2.77      13.41
N       7.70      15.95       5.31
N       7.70       4.05       6.59
N       7.70      14.66      12.12
N       1.98      10.42      14.86
N       1.98       5.50      17.66
N       1.98       8.30       3.86
N       1.98      13.22       1.06
N       6.32       1.06      13.22
N       6.32      17.66       5.50
N       6.32       3.86       8.30
N       6.32      14.86      10.42
O       7.49       7.28      13.80
O       7.49       4.44       2.07
O       7.49      11.43       4.91
O       7.49      14.27      16.64
O       0.81      16.64      14.27
O       0.81       2.07       4.44
O       0.81       4.91      11.43
O       0.81      13.80       7.28
O       6.05       5.57      14.04
O       6.05       4.68       3.78
O       6.05      13.14       4.68
O       6.05      14.04      14.93
O       2.24      14.93      14.04
O       2.24       3.78       4.68
O       2.24       4.68      13.14
O       2.24      14.04       5.57
