210

Cu       5.91      10.68       6.55
Cu       2.40       7.79       5.97
Cu      -1.11       9.74       3.77
Cu       1.12       1.61      10.32
Cu       4.63      -0.33      12.53
Cu      -2.39      -1.28       9.74
H       3.07      -0.49      10.03
H       6.59       0.96      10.86
H      -0.44      -0.47      11.70
H      -3.06       8.44       5.44
H       3.96       9.88       4.59
H       0.45       9.89       6.27
H       1.93      -2.21       8.66
H       5.45       3.01      10.05
H      -1.58      -0.80      13.88
H      -1.93       6.40       6.25
H       5.10      10.20       2.42
H       1.59      11.62       7.63
H       3.39      -5.18      11.44
H       6.91       2.09       6.09
H      -0.11       3.09      15.07
H      -3.39       7.32      10.21
H       3.63       6.32       1.23
H       0.13      14.59       4.85
H       4.51      -3.32      12.68
H       8.02       0.09       7.08
H       1.01       3.23      12.84
H      -4.50       9.32       9.21
H       2.51       6.18       3.46
H      -0.99      12.73       3.62
H      -1.81      10.65       8.32
H       5.22       6.28       5.07
H       1.71      11.28       2.91
H      -1.70       3.12      11.23
H       1.81      -1.87      13.38
H       5.33      -1.25       7.98
H      -0.42      12.26       9.59
H       6.62       4.38       5.82
H       3.10      11.58       0.88
H      -3.09       5.03      10.48
H       0.42      -2.18      15.42
H       3.94      -2.85       6.70
H       0.18      -3.50       8.59
H       3.70       3.71       8.97
H      -3.34      -0.21      15.03
H      -0.18       5.69       7.33
H       6.86       9.62       1.27
H       3.34      12.91       7.70
H      -4.55      13.57       7.28
H       2.48       5.72       8.11
H      -1.04       8.93       0.90
H       1.04       3.69       8.18
H       4.56       0.48      15.39
H       8.07      -4.16       9.01
H      -0.41       8.01       9.42
H       6.62       6.64       2.23
H       3.10      13.56       4.64
H      -3.10       2.76      14.07
H       0.42      -4.15      11.65
H       3.93       1.40       6.87
H      -0.38       9.54      11.37
H       6.65       4.19       2.58
H       3.13      14.48       2.34
H      -3.13       5.22      13.72
H       0.39      -5.08      13.95
H       3.90      -0.13       4.92
H       1.53      11.14      11.69
H       8.56       3.12       3.81
H       5.04      13.96       0.80
H      -5.04       6.29      12.49
H      -1.52      -4.55      15.50
H       1.99      -1.73       4.61
H       3.36      11.18       9.99
H      -0.16       4.57       4.69
H       6.87      12.46       1.61
H       3.68       4.84      11.60
H      -3.35      -3.06      14.69
H       0.16      -1.78       6.31
C       3.12      -1.54      10.30
C       6.63       1.25       9.81
C      -0.39       0.29      12.48
C      -3.11       8.15       6.48
C       3.91       9.12       3.82
C       0.40      10.95       5.99
C       2.47      -2.51       9.56
C       5.99       2.39       9.34
C      -1.04       0.13      13.69
C      -2.46       7.02       6.95
C       4.56       9.28       2.60
C       1.05      11.92       6.74
C       2.53      -3.86       9.95
C       6.04       2.72       7.98
C      -0.99       1.14      14.66
C      -2.52       6.69       8.31
C       4.51       8.27       1.64
C       0.99      13.26       6.35
C       3.30      -4.16      11.08
C       6.81       1.89       7.15
C      -0.21       2.27      14.36
C      -3.29       7.52       9.14
C       3.73       7.14       1.94
C       0.22      13.56       5.21
C       3.92      -3.13      11.78
C       7.43       0.77       7.70
C       0.41       2.36      13.12
C      -3.91       8.64       8.60
C       3.11       7.05       3.18
C      -0.40      12.54       4.51
C      -2.11      11.70       8.39
C       4.92       5.69       5.93
C       1.40      10.83       1.96
C      -1.40       3.71      10.36
C       2.12      -1.42      14.33
C       5.63      -2.29       7.90
C      -1.34      12.60       9.12
C       5.69       4.61       6.35
C       2.18      11.00       0.82
C      -2.17       4.79       9.94
C       1.34      -1.60      15.48
C       4.86      -3.19       7.18
C       1.77      -4.87       9.19
C       5.29       3.88       7.48
C      -1.75       0.99      15.92
C      -1.76       5.53       8.82
C       5.27       8.41       0.38
C       1.75      14.28       7.10
C       0.59      -4.51       8.53
C       4.10       4.28       8.12
C      -2.93       0.24      15.94
C      -0.58       5.13       8.17
C       6.45       9.17       0.36
C       2.93      13.92       7.77
C      -3.63      13.33       7.82
C       3.40       5.37       7.63
C      -0.12       9.52       0.84
C       0.12       4.03       8.66
C       3.64      -0.11      15.46
C       7.15      -3.93       8.47
C       3.59       9.81       7.77
C       0.08       7.18       4.61
C       7.11      11.23       3.91
C       3.44       2.23      11.69
C      -3.59      -1.83      12.38
C      -0.07      -0.40       8.52
C       2.52       9.64       8.76
C      -1.00       6.40       3.97
C       6.03      12.18       3.56
C       4.52       3.01      12.33
C      -2.51      -2.77      12.74
C       1.01      -0.23       7.53
C       1.44       8.71       8.58
C      -2.07       7.03       3.25
C       4.96      12.49       4.46
C       5.59       2.38      13.05
C      -1.44      -3.08      11.84
C       2.08       0.70       7.71
C       0.41       8.71       9.56
C       7.44       6.17       2.76
C       3.92      13.33       3.96
C      -3.92       3.24      13.53
C      -0.40      -3.93      12.33
C       3.11       0.69       6.73
C       0.44       9.57      10.65
C       7.47       4.80       2.96
C       3.95      13.84       2.68
C      -3.95       4.61      13.33
C      -0.43      -4.44      13.62
C       3.08      -0.16       5.65
C       1.50      10.47      10.83
C       8.53       4.20       3.66
C       5.02      13.55       1.80
C      -5.01       5.21      12.64
C      -1.49      -4.14      14.49
C       2.02      -1.07       5.47
C       2.52      10.49       9.89
C      -0.99       5.00       4.14
C       6.03      12.73       2.26
C       4.51       4.41      12.15
C      -2.51      -3.32      14.04
C       1.00      -1.08       6.41
N       3.82      -1.83      11.41
N       7.33       0.44       9.00
N       0.31       1.40      12.18
N      -3.81       8.97       7.30
N       3.21       8.01       4.11
N      -0.30      11.24       4.88
N      -3.24      12.05       7.76
N       3.79       6.07       6.56
N       0.28      10.10       1.98
N      -0.27       3.34       9.74
N       3.24      -0.69      14.31
N       6.76      -2.64       8.54
O       4.53      10.64       8.03
O       1.02       6.53       5.20
O      -2.49      11.04       3.06
O       2.50       2.87      11.09
O       6.01      -1.64      13.24
O      -1.01      -1.23       8.26
O       3.61       9.17       6.66
O       0.10       8.46       4.62
O      -3.42      10.59       5.02
O       3.43       0.95      11.68
O       6.94      -1.18      11.28
O      -0.09       0.24       9.64
O       1.33       7.86       7.59
O      -2.19       8.31       3.01
O       4.84      12.05       5.69
O       5.71       1.10      13.28
O      -1.32      -2.65      10.60
O       2.19       1.55       8.71
