106

Zn      10.99       5.69      13.44
Zn       3.82       6.03      14.09
H      10.74      10.30      13.58
H       8.24       8.96      23.77
H      10.12       4.32      17.75
H       4.80       7.39       9.97
H       9.67       4.37      20.21
H       5.40       7.49       7.54
H      12.14       3.55      24.53
H       3.32       8.74       3.10
H      11.73       3.55      26.97
H       3.72       8.73       0.66
H       7.11       2.89       1.34
H       4.02       1.43      14.31
H       7.85       9.07      26.21
H       3.94      10.28      14.24
H      10.79       1.47      13.86
H      10.86       1.81      11.22
H      11.13       0.97       9.68
H       2.35       0.63      11.08
H       3.56       2.14       9.47
H       3.24       2.99      10.99
H      11.03       4.06       9.97
H       1.52       3.19       8.45
H       8.50       6.64      14.62
H       4.98      10.11      17.75
H       6.29       8.95      17.48
H       4.98       9.12      16.28
H       4.67       7.99      19.14
H       4.63       7.03      17.65
H      12.46       8.38      16.87
H      12.44       9.21      18.43
H       6.31       5.10      12.92
H       8.60       4.76      12.38
H       6.20       7.00      15.15
H       2.88       4.08       6.82
H      11.96       7.99      20.53
H       6.62       2.93       3.77
C       2.89       3.29      13.99
C      10.92       5.27      24.16
C       3.47       5.71       9.75
C      11.34       6.09      17.78
C      10.45       5.29      26.96
C       4.79       6.86       0.64
C       9.07       7.35      26.69
C       6.09       4.74       0.89
C       9.87       6.31      26.13
C       5.32       5.81       1.45
C      11.26       4.32      26.36
C      11.92       8.45      13.73
C       4.10       7.90       1.25
C      11.50       4.31      24.98
C       3.87       7.92       2.63
C       3.12       5.77      11.21
C      11.64       5.97      16.31
C       6.54       3.72       1.75
C       8.49       8.28      25.81
C       3.02       1.82      14.14
C      11.74       9.91      13.79
C      11.76       1.01      14.03
C       5.06       5.82       2.86
C       2.96      10.74      14.05
C       6.68       5.78      13.70
C       8.13       5.97      13.84
C       5.26       4.75       5.13
C       9.71       7.22      22.42
C       4.02       6.91       4.89
C      11.19       5.22      22.70
C       4.72       6.73       7.92
C      10.27       5.14      19.74
C       4.37       6.67       9.27
C      10.10       6.27      24.72
C      10.53       5.12      18.37
C       2.91       4.76       8.87
C      11.87       7.15      18.54
C       3.28       4.82       7.52
C      11.58       7.18      19.91
C       4.16       5.79       7.05
C      10.81       6.18      20.50
C       2.00       3.65       9.33
C       2.75       2.55      10.11
C       1.81       1.43      10.55
C       5.54       4.77       3.68
C      12.70       8.26      17.94
C       4.40       8.02      18.07
C       5.21       9.10      17.36
C       9.50       7.25      23.88
C       6.27       3.73       3.12
C       8.70       8.23      24.43
C       4.33       6.89       3.44
N       4.50       5.82       5.65
N      10.56       6.21      21.92
N       5.81       6.36      14.44
N       8.99       5.38      13.10
O      11.55       3.76      13.75
O       9.18       8.03      21.66
O      11.93       4.38      22.19
O       3.37       7.82       5.41
O       3.26       7.99      13.97
O       3.96       3.97      14.09
O      10.88       7.75      13.44
O      11.72       5.64      11.53
O       3.05       5.98      15.99
O       4.08       5.97      12.02
O      10.65       5.84      15.52
O       5.66       3.85       5.87
