53

Zn       5.42       5.62       5.46
Zn       8.05       4.88       5.78
H       6.28       9.85       4.24
H       7.43       0.63       6.78
H       7.35       9.51       7.71
H       5.12       1.19       7.73
H       8.23       4.99      10.12
H       5.27       5.60       1.14
H       5.21       5.59      10.06
H       8.30       4.99       1.17
H       2.92       4.38       6.37
H      10.55       6.09       4.84
H       3.01       6.68       4.56
H      10.46       3.82       6.69
H       5.76       1.04       3.48
H       4.17       1.48       4.11
H       5.99       9.83       6.62
H       3.79       1.52       6.62
H       9.60       8.95       6.76
H       9.87       8.91       5.03
H       7.67       0.59       5.04
H       7.56       9.70       2.11
H       9.02       9.24       2.99
H       7.61       8.16       2.98
C       7.14       5.18       3.02
C       5.69       1.22       5.64
C       4.68       0.90       6.76
C       6.95       0.35       5.83
C       7.29       5.19       1.55
C       6.26       5.41       0.71
C       6.22       5.38       9.70
C       7.24       5.19      10.55
C      10.92       5.30       5.51
C       2.54       5.18       5.72
C       7.40       7.79       5.61
C       6.39       5.33       8.23
C       6.03       2.71       5.63
C       7.38       9.92       4.26
C       5.04       0.84       4.29
C       7.07       9.98       6.75
C       9.33       9.44       5.82
C       7.81       9.26       5.60
C       7.92       9.21       3.02
N      10.06       4.54       6.07
N       3.41       5.95       5.17
O       5.98       5.43       3.50
O       8.19       4.93       3.70
O       6.16       7.53       5.49
O       8.33       6.92       5.72
O       5.35       5.58       7.52
O       7.55       5.04       7.78
O       5.07       3.54       5.54
O       7.27       3.02       5.70
