164

Al       0.10      21.42      12.41
Al       0.11       7.11       4.13
H       0.77      14.65       7.26
H       3.18      13.95       9.00
H       0.68       0.63       9.04
H       3.16      -0.50       7.67
H       3.15      -7.96      20.74
H       0.71      -6.13      20.50
H       2.21      11.82       2.95
H       3.01      10.29       3.33
H       3.88      11.81       3.56
H       3.36      14.50       5.56
H       1.72      14.60       4.93
H       2.97      13.76       3.99
H       1.70       8.95       8.81
H       1.40       8.13       7.27
H       0.11       9.04       8.05
H       0.87      12.59       9.56
H       1.58      11.00       9.85
H       3.95      11.12       9.22
H       0.44      16.97       6.97
H       2.04      16.29       6.62
H       1.80      18.05       6.71
H       2.01      19.92       7.95
H       1.05      20.34       9.37
H       0.34      19.34       8.10
H       0.13      14.53      11.28
H       2.55      13.80      11.02
H       2.85      14.76      12.47
H       2.35      16.68      13.48
H       3.08      18.26      13.17
H       4.03      16.80      12.92
H       2.30       5.73       8.83
H       3.02       6.21       7.29
H       3.94       5.22       8.41
H       3.21       2.04       9.83
H       1.69       2.85      10.22
H       3.14       3.81       9.90
H       1.66       2.14       3.37
H       1.38       3.89       3.44
H       0.07       2.78       3.83
H       0.80      -0.32       6.16
H       1.45       0.24       4.60
H       3.84       0.74       5.10
H       0.32      -0.32      11.31
H       1.86       0.40      10.81
H       1.76      -0.55      12.31
H       1.89      -2.54      13.33
H       0.97      -4.02      12.99
H       0.23      -2.44      12.73
H       0.14      -2.79       7.06
H       2.58      -2.17       6.51
H       2.92      24.71       6.62
H       2.39      22.89       7.76
H       3.06      22.33       9.30
H       4.06      23.27       8.19
H       2.36       3.82       0.56
H       3.13       4.88       1.76
H       0.03       4.34       0.34
H       0.16      -9.65      22.42
H       2.60      -9.78      21.61
H       2.86     -10.57      23.17
H       1.99      10.22       0.59
H       1.07       9.19       1.69
H       0.32       9.78       0.21
H       0.39      -4.70      22.42
H       1.95      -4.75      21.60
H       1.80      -3.95      23.17
H       0.83      -9.14      19.89
H       1.48     -10.21      18.64
H       3.86      -9.56      18.46
H       1.71      18.28      16.36
H       1.39      19.20      14.88
H       0.11      18.98      16.07
H       3.22      -4.73      19.57
H       1.63      -4.07      19.18
H       3.00      -3.78      18.10
H       2.17      -3.81      15.94
H       2.87      -4.90      14.73
H       3.83      -4.40      16.13
C       2.03      -7.13      14.47
C       2.10      19.61      11.42
C       2.04      -5.43      11.34
C       2.11       8.94       5.09
C       2.11       5.37       5.22
C       2.12       7.04       2.07
C       2.04      10.25       5.79
C       1.59      10.29       7.12
C       1.47      11.54       7.76
C       1.79      12.72       7.05
C       2.25      12.66       5.72
C       2.39      11.42       5.08
C       1.60      14.06       7.65
C       2.37      14.58       8.63
C       2.61      15.94      10.67
C       2.25      15.89       9.30
C       1.83      17.07       8.63
C       1.75      18.28       9.34
C       2.13      18.31      10.69
C       2.58      17.16      11.37
C       2.04       4.10       6.01
C       1.56       2.94       5.38
C       1.41       1.76       6.15
C       1.75       1.78       7.51
C       2.24       2.95       8.13
C       2.39       4.13       7.37
C       1.54       0.59       8.37
C       2.33      -0.50       8.37
C       2.58      -2.95       8.54
C       2.20      -1.73       9.17
C       1.75      -1.75      10.52
C       1.67      -2.97      11.21
C       2.07      -4.15      10.57
C       2.53      -4.16       9.24
C       2.13       7.03       0.57
C       1.75      -6.12      24.69
C       1.81      -6.10      23.28
C       2.24      -7.26      22.59
C       2.62      -8.42      23.31
C       2.60      -8.42      24.71
C       2.34      -7.33      21.12
C       1.55      -6.76      20.19
C       2.19      -5.79      18.00
C       1.73      -6.91      18.73
C       1.40      -8.12      18.07
C       1.53      -8.20      16.67
C       1.98      -7.07      15.96
C       2.32      -5.87      16.60
C       2.89      11.32       3.66
C       2.59      13.94       5.01
C       1.19       9.04       7.84
C       0.94      11.57       9.17
C       1.52      17.09       7.16
C       1.26      19.53       8.66
C       3.06      14.69      11.39
C       3.03      17.23      12.81
C       2.94       5.39       8.00
C       2.59       2.92       9.59
C       1.15       2.95       3.93
C       0.85       0.54       5.47
C       1.41      -0.49      11.27
C       1.17      -3.00      12.63
C       3.06      -2.95       7.11
C       3.05      23.17       8.60
C       3.05       4.67       0.68
C       3.08      -9.66      22.59
C       1.25       9.40       0.63
C       1.47      -4.81      22.58
C       0.87      -9.31      18.81
C       1.19      19.16      15.95
C       2.53      -4.53      18.74
C       2.82      -4.68      15.81
O       1.09      -6.25      11.11
O       1.09      -6.53      13.84
O       1.16      19.83      12.25
O       2.98      -5.62      12.18
O       3.04      20.44      11.17
O       2.98      -7.77      13.91
O       1.17       6.43       2.68
O       1.18       8.69       4.25
O       1.18       6.22       5.43
O       3.06       7.67       2.65
O       3.07       5.53       4.40
O       3.06       8.14       5.36
