120

Zn       5.41       6.82       8.43
Zn       5.43       9.63       8.55
H       9.76      12.60       6.88
H       1.08       3.84      10.10
H       6.80       2.06       9.69
H       4.04      14.39       7.30
H       7.17      14.13      10.25
H       3.66       2.31       6.74
H       7.06      11.61      10.02
H       3.77       4.84       6.97
H       8.63       5.56       7.83
H       2.20      10.89       9.16
H       2.15       6.03      10.24
H       8.69      10.42       6.75
H       5.82       6.45       4.48
H       5.01      10.00      12.50
H       6.25       6.09      15.27
H       4.54      10.36       1.72
H       6.65       6.05      12.78
H       4.16      10.39       4.21
H       6.78       4.59       9.79
H       4.05      11.86       7.19
H       9.04       3.70       6.55
H       8.20       1.44       5.99
H       8.44      15.46       7.64
H       9.45      15.91       9.87
H      10.23       2.30      10.45
H       0.61      14.15       6.54
H       1.38       0.53       7.12
H       2.40       0.98       9.35
H       2.63      15.01      11.00
H       1.80      12.74      10.44
H       5.19       4.63       2.83
H       6.49       2.67       2.03
H       8.55       3.01       0.67
H       9.31       5.33       0.14
H       8.00       7.28       0.94
H       2.80       9.18      16.03
H       1.51      11.14      16.83
H       2.27      13.45      16.30
H       4.34      13.78      14.95
H       5.64      11.82      14.15
C       6.03       8.09      11.02
C       4.79       8.35       5.97
C       5.90       8.06      12.51
C       4.92       8.39       4.48
C       5.32       9.17      13.13
C       5.50       7.28       3.85
C       5.06       9.20      14.50
C       5.75       7.25       2.48
C       5.45       8.07      15.27
C       5.35       8.37       1.71
C       5.99       6.94      14.64
C       4.81       9.51       2.34
C       6.22       6.93      13.27
C       4.59       9.52       3.72
C       4.73      12.41       7.84
C       6.10       4.03       9.14
C       4.74      13.80       7.89
C       6.10       2.65       9.10
C       5.63      14.43       8.76
C       5.20       2.02       8.22
C       6.48      13.65       9.55
C       4.35       2.79       7.43
C       7.95       8.14       7.86
C       2.88       8.31       9.12
C       6.43      12.27       9.43
C       4.41       4.18       7.55
C       9.58       5.65       8.35
C       1.25      10.80       8.64
C      10.21       4.53       8.84
C       0.62      11.92       8.15
C       0.62       4.70       9.61
C      10.22      11.75       7.38
C       1.22       5.93       9.68
C       9.61      10.52       7.30
C       0.68       7.08       9.03
C      10.16       9.36       7.95
C      10.13       6.96       8.48
C       0.70       9.48       8.51
C       1.38       8.31       8.96
C       9.45       8.13       8.02
C       9.69       3.17       8.54
C       9.11       2.90       7.29
C       8.64       1.63       6.97
C       8.76       0.59       7.89
C       9.33       0.84       9.15
C       9.79       2.12       9.46
C       1.15      13.27       8.45
C       1.05      14.33       7.52
C       1.51      15.61       7.84
C       2.07      15.86       9.09
C       2.19      14.82      10.02
C       1.73      13.54       9.70
C       6.50       6.09       1.93
C       6.10       4.78       2.24
C       6.83       3.68       1.79
C       7.98       3.87       1.03
C       8.40       5.17       0.73
C       7.67       6.27       1.18
C       4.31      10.37      15.04
C       3.14      10.19      15.80
C       2.41      11.30      16.25
C       2.84      12.59      15.95
C       4.00      12.78      15.19
C       4.73      11.67      14.73
N       5.31       7.97      16.67
N       5.49       8.48       0.31
N       5.56      11.67       8.60
N       5.28       4.78       8.38
N       5.68      15.83       8.96
N       5.15       0.62       8.02
O       6.06       6.98      10.39
O       4.76       9.47       6.60
O       6.06       9.25      10.48
O       4.78       7.20       6.50
O       7.32       7.04       7.70
O       3.51       9.41       9.29
O       7.36       9.26       8.01
O       3.47       7.19       8.97
