306

Zr      13.45      -7.77      10.98
Zr       9.92      -5.73       8.10
Zr      11.68      -4.70      10.98
Zr       0.00      11.45       8.10
Zr       9.92      -7.77      10.98
Zr       1.77      14.51       8.10
H      10.80       3.25       0.85
H      -0.88       3.49      18.23
H      13.83     -10.27      14.56
H       2.15       8.50      16.59
H      12.87      10.42       8.45
H      -1.19      -4.69      12.08
H      -6.13      14.71       7.77
H       3.05      -5.50       7.79
H      12.57       1.88       2.78
H       0.88       4.86      16.30
H       9.54      -3.19       4.55
H      -2.15      18.47       2.48
H      10.50      11.43       7.01
H       1.18      -3.67      10.64
H       6.13      12.23      11.28
H      20.32      -7.98      11.30
H      15.15       7.73       0.85
H      -2.58      -2.51      18.23
H      13.66      -3.13      14.56
H      14.93      -2.39      16.59
H       7.91       5.94       8.45
H       4.65       1.32      12.08
H       2.01       7.57       7.77
H       3.24       5.39       7.79
H      15.46       9.94       2.78
H      -4.65      -1.67      16.30
H      -2.01       9.85       4.55
H      -3.24       9.14       2.48
H       8.22       3.38       7.01
H       2.58       2.86      10.64
H       9.71      -0.81      11.28
H       8.44       1.35      11.30
H       9.10       9.26       0.85
H       3.47      -0.98      18.23
H       7.56      -6.84      14.56
H       6.29      -6.11      16.59
H      14.27       3.88       8.45
H      -3.47       3.37      12.08
H      15.81      -2.05       7.77
H      17.08       0.11       7.79
H       7.03       8.41       2.78
H       3.77      -3.19      16.30
H       4.16      13.57       4.55
H       5.39      12.86       2.48
H      16.34       5.43       7.01
H      -3.77       0.81      10.64
H      -4.16       8.81      11.28
H      -5.39       6.63      11.30
H       8.22       7.73       0.85
H       2.58      -2.51      18.23
H       9.71      -3.13      14.56
H       8.44      -2.39      16.59
H      15.46       5.94       8.45
H      -4.65       1.32      12.08
H      -2.01       7.57       7.77
H      -3.24       5.39       7.79
H       7.91       9.94       2.78
H       4.65      -1.67      16.30
H       2.01       9.85       4.55
H       3.24       9.14       2.48
H      15.15       3.38       7.01
H      -2.58       2.86      10.64
H      13.66      -0.81      11.28
H      14.93       1.35      11.30
H      14.27       9.26       0.85
H      -3.47      -0.98      18.23
H      15.81      -6.84      14.56
H      17.08      -6.11      16.59
H       9.10       3.88       8.45
H       3.47       3.37      12.08
H       7.56      -2.05       7.77
H       6.29       0.11       7.79
H      16.34       8.41       2.78
H      -3.77      -3.19      16.30
H      -4.16      13.57       4.55
H      -5.39      12.86       2.48
H       7.03       5.43       7.01
H       3.77       0.81      10.64
H       4.16       8.81      11.28
H       5.39       6.63      11.30
H      12.57       3.25       0.85
H       0.88       3.49      18.23
H       9.54     -10.27      14.56
H      -2.15       8.50      16.59
H      10.50      10.42       8.45
H       1.18      -4.69      12.08
H       6.13      14.71       7.77
H      20.32      -5.50       7.79
H      10.80       1.88       2.78
H      -0.88       4.86      16.30
H      13.83      -3.19       4.55
H       2.15      18.47       2.48
H      12.87      11.43       7.01
H      -1.19      -3.67      10.64
H      -6.13      12.23      11.28
H       3.05      -7.98      11.30
H      11.68     -10.08      18.40
H       0.00      16.82       0.68
H      -9.15      11.54       8.16
H      20.84      -4.79      10.92
H      11.68       0.49       3.45
H      -0.00       6.25      15.63
H       9.15      11.54       8.16
H       2.53      -4.79      10.92
H      14.57      -5.08      18.40
H      -2.88      11.83       0.68
H       6.27       6.54       8.16
H       5.41       0.20      10.92
H      -6.27       9.87       3.45
H      17.96      -3.13      15.63
H       8.80       2.16       8.16
H       2.88       4.59      10.92
H       8.80      -5.08      18.40
H       2.88      11.83       0.68
H      14.57       2.16       8.16
H      -2.88       4.59      10.92
H       6.27       9.87       3.45
H       5.41      -3.13      15.63
H      -6.27       6.54       8.16
H      17.96       0.20      10.92
H       0.00      13.49       6.14
H      14.46      -5.14      10.68
H      -0.00      10.28      10.68
H       8.90      -5.14      10.68
C      12.90     -10.60      15.02
C      12.89     -11.41      16.14
C      -6.69      14.18       8.54
C      -8.09      14.19       8.55
C      10.47      -2.87       4.09
C      10.48      -2.08       2.94
C       6.69      12.78      10.52
C       8.09      12.79      10.53
C      14.41      -3.77      15.02
C      15.12      -3.37      16.14
C       2.75       7.35       8.54
C       3.44       6.14       8.55
C      -2.75      10.50       4.09
C      -3.44      10.11       2.94
C       8.96      -0.59      10.52
C       8.25       0.61      10.53
C       7.75      -5.87      15.02
C       7.04      -5.46      16.14
C      15.62      -1.29       8.54
C      16.33      -0.09       8.55
C       3.97      12.60       4.09
C       4.65      12.20       2.94
C      -3.97       8.05      10.52
C      -4.65       6.84      10.53
C       8.96      -3.77      15.02
C       8.25      -3.37      16.14
C      -2.75       7.35       8.54
C      -3.44       6.14       8.55
C       2.75      10.50       4.09
C       3.44      10.11       2.94
C      14.41      -0.59      10.52
C      15.12       0.61      10.53
C      15.62      -5.87      15.02
C      16.33      -5.46      16.14
C       7.75      -1.29       8.54
C       7.04      -0.09       8.55
C      -3.97      12.60       4.09
C      -4.65      12.20       2.94
C       3.97       8.05      10.52
C       4.65       6.84      10.53
C      10.47     -10.60      15.02
C      10.48     -11.41      16.14
C       6.69      14.18       8.54
C       8.09      14.19       8.55
C      12.90      -2.87       4.09
C      12.89      -2.08       2.94
C      -6.69      12.78      10.52
C      -8.09      12.79      10.53
C      11.68      -9.30      13.24
C      11.68     -10.18      14.45
C      -0.00       8.41      16.72
C      -0.00       7.55      17.94
C      11.68       1.41       0.13
C      11.68       2.91       0.28
C      -0.00       5.34      18.95
C      -0.00       3.84      18.79
C      -4.50      13.45       9.51
C      -5.99      13.46       9.52
C       2.89      -6.75       9.54
C       1.40      -6.74       9.54
C      12.39      12.49       8.83
C      13.13      11.42       8.08
C      -0.70      -5.74      10.25
C      -1.45      -4.67      11.01
C      11.68      -4.11       5.90
C      11.68      -3.26       4.67
C       0.00      18.57       2.36
C       0.00      19.43       1.14
C      11.68       0.59       1.28
C      11.68       1.24       2.64
C      -0.00       6.15      17.80
C      -0.00       5.51      16.43
C       4.50      13.45       9.51
C       5.99      13.46       9.52
C      20.48      -6.75       9.54
C      21.97      -6.74       9.54
C      10.98      12.49       8.83
C      10.24      11.42       8.08
C       0.70      -5.74      10.25
C       1.45      -4.67      11.01
C      13.90      -5.47      13.24
C      14.65      -5.03      14.45
C      16.08      -4.21      16.72
C      16.83      -3.78      17.94
C      16.31       9.42       0.13
C      15.01       8.67       0.28
C      -4.62      -2.67      18.95
C      -3.32      -1.92      18.79
C       2.29       9.62       9.51
C       3.02       8.32       9.52
C       4.40       5.87       9.54
C       5.14       4.58       9.54
C       6.36       4.48       8.83
C       6.91       5.66       8.08
C       5.33       2.26      10.25
C       4.77       1.08      11.01
C      -2.29      12.17       5.90
C      -3.02      11.75       4.67
C      -4.40      10.95       2.36
C      -5.14      10.52       1.14
C      17.01       9.82       1.28
C      16.46       9.50       2.64
C      -5.33      -3.07      17.80
C      -4.77      -2.75      16.43
C       9.47      -2.83       9.51
C       8.71      -1.55       9.52
C       7.28       0.87       9.54
C       6.54       2.16       9.54
C       7.06       3.26       8.83
C       8.36       3.16       8.08
C       4.62       3.48      10.25
C       3.32       3.59      11.01
C       9.47      -5.47      13.24
C       8.71      -5.03      14.45
C       7.28      -4.21      16.72
C       6.54      -3.78      17.94
C       7.06       9.42       0.13
C       8.36       8.67       0.28
C       4.62      -2.67      18.95
C       3.32      -1.92      18.79
C      13.90      -2.83       9.51
C      14.65      -1.55       9.52
C      16.08       0.87       9.54
C      16.83       2.16       9.54
C      16.31       3.26       8.83
C      15.01       3.16       8.08
C      -4.62       3.48      10.25
C      -3.32       3.59      11.01
C       2.29      12.17       5.90
C       3.02      11.75       4.67
C       4.40      10.95       2.36
C       5.14      10.52       1.14
C       6.36       9.82       1.28
C       6.91       9.50       2.64
C       5.33      -3.07      17.80
C       4.77      -2.75      16.43
C      -2.29       9.62       9.51
C      -3.02       8.32       9.52
C      -4.40       5.87       9.54
C      -5.14       4.58       9.54
C      17.01       4.48       8.83
C      16.46       5.66       8.08
C      -5.33       2.26      10.25
C      -4.77       1.08      11.01
O      12.82      -8.96      12.76
O      -3.91      14.11       8.58
O      10.55      -4.45       6.38
O       3.91      12.79      10.44
O      13.04      -4.65      12.76
O       1.42       9.80       8.58
O      -1.42      11.36       6.38
O      10.33      -3.01      10.44
O       9.20      -6.62      12.76
O      14.17      -3.67       8.58
O       2.56      13.33       6.38
O      -2.56      10.45      10.44
O      10.33      -4.65      12.76
O      -1.42       9.80       8.58
O       1.42      11.36       6.38
O      13.04      -3.01      10.44
O      14.17      -6.62      12.76
O       9.20      -3.67       8.58
O      -2.56      13.33       6.38
O       2.56      10.45      10.44
O      10.55      -8.96      12.76
O       3.91      14.11       8.58
O      12.82      -4.45       6.38
O      -3.91      12.79      10.44
O      -0.00      11.20      10.35
O      11.68      -5.05       8.94
O       9.70      -5.60      10.35
O       1.47      12.64       8.94
O      -0.00      13.49       7.10
O      11.68      -6.75      11.34
O      13.67      -5.60      10.35
O      -1.47      12.64       8.94
