152

Zn      14.49       7.80       0.03
Zn      -8.32       1.19      15.32
Zn       3.82       3.91       6.81
Zn       2.17       5.10       8.70
Zn      -8.23      12.62       8.85
Zn       8.64      13.70       6.84
H      -5.64      -0.80      13.07
H       6.19       6.05      14.10
H       6.64      11.10      11.18
H       8.28      -1.90      12.54
H      -0.30       9.70       6.39
H      -1.55       3.85       1.21
H      -4.02       7.21       3.02
H       2.13      -2.87       9.53
H       3.95       2.15      13.96
H       7.44      -1.08      10.34
H      -3.96      -1.95      11.63
H       1.40       4.59       3.07
H       6.20       0.20      11.88
H      -6.28       9.44       6.39
H      -1.50       2.43       8.14
H      -2.79       0.31       7.82
H       2.17       0.21       7.80
H       9.72       3.67       9.59
C      10.28      -1.33      13.48
C      11.12      -2.04      12.45
C      -0.02       8.13       3.83
C       7.91       1.45      13.67
C       0.79       7.45       4.75
C       1.29       6.17       4.51
C       1.00       5.58       3.29
C       0.20       6.23       2.36
C      -0.32       7.52       2.60
C      -5.32      11.44       3.24
C      -5.96      12.08       4.30
C       5.62       2.87      10.44
C      -6.33      11.37       5.44
C      -6.04      10.00       5.49
C      -5.49       9.34       4.39
C      13.86       9.45       1.99
C      -5.12      10.05       3.22
C       1.24       2.69       8.06
C       4.71       3.41       9.30
C       4.10       6.79       8.06
C       2.02       5.40       5.57
C       7.76      11.27       7.33
C       5.84       4.04      11.56
C      -4.33      -3.93       9.93
C      -1.88      -2.19       7.69
C      -7.13      12.03       6.52
C      -0.99       1.48       8.03
C      -1.21       8.19       1.58
C      -1.70       0.30       7.86
C      -1.05      -0.94       7.76
C       0.36      -0.96       7.78
C       1.08       0.23       7.86
C       0.41       1.45       8.01
C       7.00       2.25       9.95
C       6.02       8.22       8.79
C       6.98       9.20       8.54
C       6.86      10.08       7.45
C       5.78       9.87       6.58
C       4.87       8.84       6.80
C       5.79       1.14      12.27
C       4.96       8.01       7.92
C       4.86       1.74      11.19
C       6.52       3.54      12.88
C       7.85       2.07      11.25
C      -5.93      -1.63      12.43
C       7.00       2.09      12.59
C      -4.99      -2.29      11.65
C      13.03      -3.39      10.88
C      11.69      -3.83      10.91
C      10.72      -3.12      11.64
S       7.91       3.34       8.53
S       6.99       0.51       8.93
S       7.86       4.94      13.50
S      11.27      -5.40      10.10
S       8.96      -3.53      11.37
S      -0.69       9.75       4.28
S      -0.07       5.34       0.83
S      13.04       7.55       4.62
S       1.35      -2.44       7.61
S       5.43       3.56      14.49
O       9.26      -1.97      13.97
O       7.45      12.19       6.49
O      -3.29      -4.52      10.39
O      -7.75      -0.18      13.84
O      13.83      -3.65       8.72
O      -1.60      -3.09       8.53
O      -2.82      -2.22       6.82
O      -6.87      11.75       7.74
O      10.33      12.78       6.10
O       7.60       0.29      14.06
O       8.94       2.12      14.00
O       0.84       3.67       8.79
O      13.47       8.26       1.63
O      -3.71      10.13       1.33
O      -2.28       7.56       1.32
O      -0.83       9.30       1.06
O       2.30       2.67       7.36
O       7.69       2.71       7.27
O       7.61       4.72       8.75
O       9.45       3.07       8.86
O     -10.25       4.61      14.86
O       8.90       5.18      12.55
O       5.10       3.19       8.11
O       6.91       6.20      13.42
O      10.31      -6.09      10.92
O       5.06      12.43       8.69
O       6.60      11.51      10.29
O       8.80      -3.79       9.97
O       8.46      -4.39      12.40
O       8.27      -2.07      11.56
O       0.38      10.70       4.19
O      -1.94       9.91       3.61
O      -1.09       9.55       5.82
O       3.65       3.99       9.65
O      -6.12      -2.48      15.19
O       0.79       4.19       0.82
O      -1.59       4.80       0.97
O      -5.21       7.32       6.03
O      12.00       6.91       3.87
O      -3.92       7.18       4.00
O       0.68      -3.34       6.73
O       2.72      -2.04       7.39
O       1.29      -3.09       9.09
O       6.04       2.58      15.34
O       4.44       5.83       7.31
O       5.24       4.93      14.92
O       3.95       3.12      14.15
O       5.91       0.55       8.00
O       8.36       0.32       8.56
O       6.62      -0.62       9.99
O       3.11       6.81       8.88
O       2.96       4.62       5.20
O       1.60       5.57       6.75
O       8.77      11.30       8.10
F       5.02       0.79      13.39
F       3.88       8.63       5.90
F       3.71       2.22      11.76
F       4.65       4.64      11.89
F       8.81       3.03      11.35
F       8.55       0.87      11.24
F       6.60       5.00      10.99
F       1.11       8.08       5.91
F      -4.94      12.22       2.22
F      -6.20      13.39       4.16
F       6.16       7.44       9.88
F       4.43       0.77      10.32
F       7.99       9.27       9.43
F       5.59      10.63       5.48
