52

Zn       6.12       4.61       8.59
Zn       3.50       4.61       8.40
H       6.34       2.05       2.12
H       6.85       3.18       0.16
H       3.30       2.03      14.88
H       6.22       5.19      15.26
H       3.40       5.17       1.70
H       3.59       5.65       4.12
H       6.00       5.65      12.84
H       1.83       0.70      12.27
H       7.80       0.75       4.76
H       2.79       3.18      16.82
C       4.83       7.19       8.50
C       5.39       4.88      13.31
C       4.09       4.60       2.32
C       5.53       4.60      14.65
C       4.83       3.55       1.74
C       4.80       3.55      15.25
C       5.76       2.87       2.54
C       3.87       2.86      14.46
C       5.95       3.20       3.89
C       3.68       3.17      13.10
C       4.66       3.26       0.31
C       4.82       2.03       8.49
C       4.97       3.28      16.68
C       2.64       2.41      12.34
C       7.00       2.45       4.65
C       2.16       2.96       0.44
C       7.48       2.99      16.55
C       4.83       8.63       8.50
C       4.83       0.59       8.49
C       5.07       4.48       5.94
C       4.54       4.46      11.04
C       5.14       4.20       4.47
C       4.47       4.18      12.51
C       4.22       4.89       3.66
N       1.32       4.50       8.38
N       8.31       4.50       8.59
O       5.91       6.62       8.87
O       2.57       1.11      12.77
O       7.76       2.92       5.48
O       7.05       1.14       4.26
O       2.07       2.48       1.56
O       7.57       2.51      15.43
O       3.71       2.60       8.72
O       3.74       6.62       8.13
O       5.94       2.60       8.25
O       6.09       4.91       6.57
O       3.52       4.89      10.42
O       3.91       4.27       6.44
O       5.69       4.25      10.53
O       1.90       2.85      11.48
