72

Zn       7.61       6.05       6.91
Zn       4.69       6.21       7.07
H       8.55       6.80      13.59
H       9.38       2.56       9.16
H       8.49       3.56       7.98
H       8.14       3.74       9.71
H       8.66       5.97       3.43
H       9.60       3.98       2.62
H       9.82       3.97       4.39
H       1.34       4.41       3.32
H       4.75      11.11       9.80
H       2.85      10.62       8.38
H       3.14       9.34       9.60
H       9.64       7.67       4.50
H       3.67       9.11       7.92
H       7.58       8.95       4.44
H       9.84       9.43       3.26
H       8.89      10.71       2.46
H       8.41       9.01       2.29
H       2.51       6.36       3.84
H       2.23       8.03       4.44
H       3.81       5.08       0.42
H       4.50       2.02       8.53
H       8.80       1.78       5.34
H       2.60       5.44       8.94
H      10.63       4.46       9.83
C       6.51       8.67       7.19
C       8.37      10.63       5.25
C       1.88       6.45       5.95
C       6.02       6.25       4.40
C       2.00       5.67       8.06
C      10.46       5.30       8.02
C      10.36       6.19       5.94
C      10.19       6.73       4.49
C       1.93       6.98       4.54
C       5.96       3.58       6.88
C       6.02       6.02       9.59
C       5.98       6.13       2.97
C       6.20       5.98      11.02
C       6.53       6.11      13.62
C       5.82       5.77       0.38
C       5.92       5.95       1.76
C       6.37       6.02      12.23
C       8.93       3.55       8.98
C      10.09       4.50       3.46
C       3.56       9.85       8.72
C       7.37       1.82       3.81
C       8.82       9.75       2.99
C       7.33      10.86       6.35
C       9.69      10.21       5.76
C       6.50      10.16       7.22
C       5.67      10.96       8.05
C       5.17       1.42       7.91
C       5.99       2.10       6.99
C       6.82       1.29       6.22
C       7.83       1.31       5.09
N       2.64       6.24       7.03
N       9.67       5.65       6.95
N       9.97       4.58       9.06
N       9.68       5.90       3.43
N       4.87      10.41       9.08
N       7.03       2.27       2.79
N       7.91       9.87       4.12
N      10.75       9.85       6.11
O       7.65       8.09       7.23
O       5.38       8.10       7.05
O       7.15       6.57       4.92
O       4.93       6.04       5.02
O       7.02       4.14       6.43
O       4.90       4.18       7.25
O       7.07       5.82       8.89
O       4.85       6.24       9.16
