170

Zn       1.87       6.67      11.40
Zn      11.24       6.46      11.84
Zn       7.37       2.08      23.03
Zn       6.06      10.81       0.21
H       2.97       4.68      17.27
H       4.46       2.74      10.09
H       5.99       4.55      19.56
H       6.70       9.55       3.62
H       6.87      10.61      19.42
H       6.67       1.51       4.07
H      10.54      11.58       0.66
H       2.70      12.64      22.76
H       8.89       4.96      15.60
H       3.44       7.84       8.20
H       3.23       6.47      15.07
H       9.07       9.18       6.38
H      10.06       6.54       8.24
H      11.07       8.65      16.80
H       4.26       2.55       7.21
H       2.14       3.34      20.34
H      10.56       9.83       3.17
H       5.27      10.80      17.14
H       8.37       2.66       6.07
H       9.71      10.20      12.30
C      11.71       8.11       9.78
C      10.85       1.73       3.96
C       3.97      11.69      19.98
C       9.73       1.90       3.09
C      12.12       2.83      16.78
C       0.57      10.12       6.69
C      11.91       3.85      15.83
C       0.54       9.13       7.69
C       2.16      10.48      16.26
C      11.49       2.76       6.95
C       2.10       9.47      15.29
C      12.47       5.01      13.66
C      11.69       3.77       7.91
C       1.14      12.68      17.40
C      12.13       0.43       5.89
C       1.10       8.46      13.20
C       0.86       4.76       9.85
C       1.05       1.82      16.58
C      11.88      11.33       6.81
C      12.81       4.08      14.79
C      11.60       9.10       8.65
C       1.17      11.52      16.31
C       9.96      11.43      19.29
C      12.33       1.60       6.91
C       1.14       9.50      14.28
C       0.69       3.73       8.78
C       2.46      12.72      18.30
C      10.88       0.66       4.92
C       4.61      12.92      20.23
C       8.87       0.81       2.86
C      12.08      12.41      18.48
C       1.26       0.35       4.84
C      10.08      12.08      20.51
C       3.54       0.83       4.02
C       3.27      12.26       2.89
C       9.00      12.12      21.55
C       4.34      12.06       1.86
C       5.64       0.92      21.37
C       7.91       0.69       1.70
C       1.94       2.09      15.48
C      10.97      11.34       7.93
C       1.89       3.31      14.75
C      10.68      10.14       8.64
C      12.28      11.51      15.25
C      12.27       0.79      19.78
C       1.25       1.52       7.93
C      12.29      10.53      14.25
C       1.52       2.60       8.78
C       3.37       1.64      18.39
C       9.73      11.96       4.84
C       4.31       1.77      19.43
C       8.88      11.94       3.72
C      10.98      11.51      18.31
C       2.51       1.03       4.97
C       3.49       2.87      17.50
C       0.98      11.89       3.61
C       9.22      11.00       5.89
C      10.67      10.45      17.25
C       2.92       2.16       5.91
C       1.29       1.64      20.36
C      11.81      11.26       3.07
C       3.47      10.26      17.02
C      10.19       3.08       6.21
C      11.41      10.59      13.01
C       2.59       2.53       9.84
C       4.72       3.18      19.81
C      11.26      12.78      20.79
C       8.23      10.61       3.39
C       8.76      10.52      19.16
C       4.79       1.67       4.05
C      11.55       1.01      22.21
C       1.70      11.15       1.29
C      10.74       4.81      15.93
C       1.63       8.07       7.75
C       3.15       8.38      15.18
C      10.56       4.74       8.19
C       1.99      11.77       2.64
C       2.78      11.65      19.21
I       3.66       4.04      13.81
I       9.40       3.75       2.15
I       3.32       0.76      14.57
I      10.20       0.74       9.01
I       8.83       9.89       9.67
I      10.80       0.68      14.86
I       2.34      12.06       8.49
I       1.52      10.01      19.71
I       0.33       3.10       3.63
I      10.60       2.93      18.26
I       2.09       9.59       5.29
I       4.77       9.87      20.72
O       0.81       7.87      10.13
O       4.71      10.85       1.64
O       5.90      12.17      22.09
O       7.48       1.73       1.10
O       6.03       2.13      21.58
O       7.50      11.73       1.41
O       8.58      11.05      22.11
O       4.83       0.87       1.28
O       4.45       2.98      16.76
O       2.67       3.91      17.80
O       8.34      11.36       6.66
O      11.23       5.22      13.39
O       9.59       9.70       5.73
O       9.67      10.49      16.56
O      11.47       9.37      17.33
O       2.45       3.28       5.94
O       4.04       1.80       6.60
O       2.00       1.21      21.27
O       1.34       2.90      19.93
O      11.29      11.79       2.08
O      11.44      10.10       3.59
O       3.71       9.21      17.59
O      12.05       7.97      12.96
O       4.43      11.19      16.79
O      10.03       4.14       5.63
O       9.17       2.23       6.44
O      11.88      10.93      11.93
O      10.15      10.16      13.19
O       2.38       2.32      11.01
O       3.84       2.81       9.34
O       3.95       3.90      20.45
O       5.87       3.61      19.28
O       8.88       9.70       2.88
O       2.03       5.25      10.07
O       6.98      10.46       3.86
O       8.82       9.31      19.13
O       7.61      11.24      19.21
O       4.80       2.88       3.94
O       5.90       0.90       4.16
O      11.62       2.18      22.57
O      11.53      12.16      22.99
O       1.39       9.99       1.10
O       1.83      12.10       0.35
O      10.86       5.96      16.32
O       2.21       8.14      12.63
O       9.57       4.27      15.50
O       1.50       6.91       7.39
O       2.79       8.56       8.28
O       4.30       8.56      14.84
O       2.59       7.16      15.39
O       9.51       4.35       8.67
O      10.82       6.02       7.89
O      11.89       5.07      10.47
O      10.67       7.62      10.34
O       1.34       5.50      12.99
O       8.69       1.07      21.82
