412

Zn      15.85       4.00       1.91
Zn       4.67      11.09       7.45
Zn       3.03      26.19      16.81
Zn      14.21      19.09      11.27
Zn      18.56       3.17       0.40
Zn       5.57       9.64       4.74
Zn      14.15       4.20       4.62
Zn       2.76      13.18       8.96
Zn       0.32      27.02      18.32
Zn      13.30      20.55      13.98
Zn       4.73      25.99      14.10
Zn      16.12      17.00       9.75
P       5.24      15.34       0.93
P       9.80      17.28       3.78
P      19.26      11.28       5.58
P      19.45       6.33       8.43
P      13.64      14.84      17.78
P       9.08      12.91      14.94
P      -0.38      18.91      13.14
P      -0.58      23.85      10.29
H      19.95       0.65       0.59
H       6.17      10.89       2.21
H      15.03       5.27       7.15
H      -0.11      13.37       8.76
H      -1.08      29.53      18.12
H      12.71      19.30      16.51
H       3.85      24.91      11.56
H      18.99      16.81       9.95
H       5.05      14.55      18.04
H       5.22       7.04       3.32
H       2.50      22.82       6.04
H       2.83      15.96      10.03
H      13.83      15.63       0.68
H      13.66      23.14      15.40
H      16.38       7.37      12.68
H      16.05      14.23       8.68
H       7.32      13.72      17.28
H       5.61       6.18       0.96
H       1.55      22.80       8.40
H       1.11      17.67      10.80
H      11.55      16.46       1.44
H      13.27      24.01      17.76
H      17.32       7.38      10.32
H      17.77      12.52       7.92
H       7.92      11.38      17.63
H      12.38      17.91      17.91
H       2.73      24.03      10.16
H      -1.27      17.20      10.44
H      10.96      18.81       1.08
H       6.49      12.28       0.80
H      16.15       6.16       8.56
H      20.15      12.98       8.28
H       8.56      18.97       0.44
H       7.63      12.92       2.93
H      16.24       7.46       6.43
H      21.32      10.88       8.92
H      10.32      11.21      18.28
H      11.25      17.27      15.79
H       2.64      22.72      12.28
H      -2.44      19.31       9.79
H       7.79      16.60       0.54
H       8.85      15.00       2.30
H      17.61       9.45       7.06
H      19.50       9.18       8.82
H      11.08      13.58      18.18
H      10.03      15.18      16.42
H       1.27      20.74      11.66
H      -0.62      21.01       9.89
H       3.75      17.96       1.15
H       8.84      16.22       6.44
H      18.71       9.96       2.92
H      22.45       6.09       8.21
H      15.13      12.23      17.57
H      10.04      13.96      12.28
H       0.17      20.23      15.80
H      -3.58      24.09      10.51
H       4.55      20.32       1.14
H       7.54      14.17       7.03
H      17.42       7.91       2.33
H       2.09       7.83       8.22
H      14.33       9.87      17.58
H      11.34      16.01      11.69
H       1.46      22.27      16.39
H      16.79      22.36      10.50
H       4.26      13.02       2.32
H       9.96      20.11       3.34
H      -0.41      12.64       6.01
H      17.77       4.46       7.04
H      14.61      17.16      16.40
H       8.92      10.07      15.37
H      19.29      17.55      12.70
H       1.11      25.73      11.67
H       3.72      12.53       4.68
H      17.80       1.93       3.51
H       1.97      11.97       5.85
H      17.56       3.76       4.68
H      15.16      17.65      14.04
H       1.08      28.26      15.21
H      16.91      18.22      12.87
H       1.32      26.43      14.04
H       4.63      16.59       5.76
H       5.32      19.25       4.91
H       0.79       8.07       4.45
H      20.84       6.31       3.60
H      14.25      13.60      12.96
H      13.56      10.93      13.81
H      18.09      22.11      14.26
H      -1.96      23.87      15.12
H       5.15      17.11       3.37
H       6.96      17.37       4.77
H      20.56       8.75       4.59
H      21.09       7.00       5.99
H      13.73      13.08      15.35
H      11.92      12.82      13.94
H      -1.68      21.44      14.13
H      -2.21      23.18      12.73
H      10.77      25.34      16.88
H      12.38      16.18       4.27
H      17.17      13.15       5.08
H      10.15      25.74      11.20
H       8.11       4.84       1.84
H       6.50      14.00      14.44
H       1.71      17.04      13.63
H       8.73       4.45       7.52
H       8.66      25.51      15.57
H      14.00      16.33       6.17
H      16.61      14.67       3.19
H      11.20      23.90      12.51
H      10.22       4.67       3.15
H       4.88      13.86      12.55
H       2.27      15.51      15.53
H       7.68       6.29       6.21
H       0.24      15.73       0.48
H      11.39      19.05       8.22
H      -1.98      13.48       1.14
H      12.49      22.02       8.87
H      18.64      14.45      18.23
H       7.49      11.13      10.50
H      20.86      16.71      17.58
H       6.39       8.17       9.84
H       2.34      15.56       1.82
H       9.76      18.92       6.33
H      -1.40      11.94       3.03
H      11.43      23.85       7.54
H      16.54      14.62      16.90
H       9.12      11.26      12.38
H      20.28      18.24      15.69
H       7.45       6.34      11.18
C       6.02      10.85      18.57
C       6.19       9.51       0.51
C       4.32      24.75       8.85
C      -0.94      15.26       9.50
C      12.86      19.34       0.14
C      12.69      20.67      18.21
C      14.56       5.44       9.87
C      19.81      14.93       9.22
C      20.76       1.25       0.18
C       6.02       9.87       1.85
C      14.17       4.71       7.50
C       0.09      14.36       9.18
C      -1.88      28.93      18.54
C      12.85      20.32      16.86
C       4.71      25.48      11.21
C      18.79      15.83       9.53
C       5.36      13.51      18.15
C       5.52       7.69       2.50
C       2.96      23.37       6.86
C       1.76      15.80       9.93
C      13.52      16.67       0.57
C      13.36      22.49      16.22
C      15.92       6.82      11.86
C      17.12      14.39       8.79
C       6.61      13.06      17.76
C       5.71       7.24       1.20
C       2.47      23.34       8.16
C       0.81      16.74      10.32
C      12.27      17.13       0.96
C      13.17      22.95      17.52
C      16.41       6.84      10.56
C      18.07      13.45       8.40
C       6.94      11.72      17.97
C       6.05       8.15       0.20
C       3.14      24.04       9.15
C      -0.54      16.46      10.11
C      11.94      18.46       0.75
C      12.83      22.04      18.51
C      15.73       6.15       9.56
C      19.42      13.72       8.61
C      16.54       1.16       0.80
C       6.72      12.20       5.36
C      15.98       6.32       4.00
C       1.81      10.50       8.56
C       2.34      29.02      17.92
C      12.16      17.99      13.35
C       2.90      23.86      14.72
C      17.07      19.68      10.16
C       6.60      19.79       0.79
C       7.51      13.42       5.01
C      16.75       7.56       4.35
C       0.73       9.46       8.57
C      12.28      10.40      17.93
C      11.37      16.76      13.70
C       2.13      22.62      14.37
C      18.15      20.73      10.15
C       7.51      18.74       0.61
C       7.89      13.66       3.69
C      16.80       8.01       5.67
C      21.56       9.83       8.75
C      11.37      11.45      18.11
C      10.99      16.53      15.03
C       2.08      22.18      13.04
C      -2.68      20.35       9.97
C       7.08      17.41       0.66
C       8.57      14.82       3.34
C      17.56       9.12       6.02
C      20.54       8.87       8.70
C      11.80      12.77      18.06
C      10.31      15.37      15.37
C       1.32      21.07      12.70
C      -1.67      21.31      10.02
C       5.72      17.12       0.86
C       8.91      15.76       4.32
C      18.27       9.83       5.03
C      20.85       7.52       8.49
C      13.16      13.07      17.85
C       9.97      14.42      14.39
C       0.61      20.36      13.68
C      -1.97      22.66      10.22
C       4.81      18.17       1.01
C       8.56      15.51       5.66
C      18.19       9.40       3.70
C      22.20       7.15       8.35
C      14.07      12.01      17.71
C      10.32      14.68      13.06
C       0.69      20.78      15.02
C      -3.32      23.04      10.37
C       5.24      19.50       0.99
C       7.85      14.36       6.00
C      17.45       8.27       3.36
C      23.21       8.11       8.37
C      13.64      10.69      17.72
C      11.03      15.82      12.72
C       1.43      21.92      15.36
C      -4.33      22.08      10.35
C       4.75      15.11       2.68
C       8.57      18.60       4.04
C      -1.18      10.73       5.31
C      19.45       5.79       6.68
C      14.13      15.08      16.04
C      10.31      11.58      14.67
C      20.06      19.45      13.40
C      -0.57      24.40      12.04
C       4.34      13.82       3.06
C       8.95      19.91       3.70
C      -0.16      11.63       5.66
C      18.46       4.87       6.29
C      14.54      16.37      15.65
C       9.93      10.27      15.02
C      19.03      18.55      13.06
C       0.42      25.32      12.42
C       4.02      13.54       4.39
C       8.04      20.97       3.80
C       1.18      11.27       5.56
C      18.34       4.46       4.97
C      14.85      16.65      14.33
C      10.83       9.22      14.92
C      17.70      18.92      13.16
C       0.54      25.72      13.75
C       4.15      14.54       5.37
C       6.73      20.73       4.22
C       1.52       9.97       5.14
C      19.19       5.00       3.99
C      14.73      15.65      13.35
C      12.15       9.46      14.50
C      17.35      20.21      13.58
C      -0.31      25.19      14.72
C       4.55      15.82       4.99
C       6.35      19.42       4.57
C       0.51       9.07       4.79
C      20.18       5.91       4.37
C      14.33      14.36      13.73
C      12.53      10.76      14.15
C      18.37      21.11      13.93
C      -1.30      24.27      14.35
C       4.84      16.11       3.66
C       7.26      18.38       4.49
C      -0.83       9.45       4.87
C      20.31       6.30       5.70
C      14.04      14.08      15.06
C      11.62      11.81      14.23
C      19.71      20.73      13.85
C      -1.43      23.89      13.01
C       3.83      14.26       6.80
C       5.73      21.83       4.32
C       2.95       9.54       5.04
C      19.08       4.60       2.56
C      15.04      15.92      11.92
C      13.15       8.36      14.40
C      15.93      20.65      13.68
C      -0.20      25.59      16.16
C       3.62      15.39       0.08
C      10.95      17.53       5.18
C      -3.17      12.43       4.17
C      10.74      24.93       9.28
C      15.26      14.79      18.64
C       7.93      12.66      13.53
C      22.05      17.76      14.54
C       8.14       5.26       9.44
C       9.82      25.46      17.39
C      12.16      16.81       5.14
C      17.83      13.21       4.22
C      10.66      24.93      10.68
C       9.06       4.72       1.32
C       6.72      13.37      13.58
C       1.05      16.97      14.50
C       8.22       5.26       8.03
C       8.64      25.56      16.65
C      13.06      16.89       6.19
C      -4.65      14.07       3.17
C      11.25      23.91      11.42
C      10.24       4.63       2.06
C       5.82      13.30      12.52
C      23.53      16.12      15.55
C       7.63       6.28       7.30
C       7.41      25.71      17.31
C      12.78      17.69       7.31
C      -3.80      14.16       2.05
C      11.91      22.86      10.77
C      11.47       4.47       1.41
C       6.09      12.50      11.41
C      22.68      16.03      16.67
C       6.96       7.33       7.95
C       7.37      25.76      18.71
C      11.59      18.43       7.35
C      -2.63      13.39       2.01
C      11.97      22.84       9.37
C      11.51       4.43       0.01
C       7.29      11.76      11.37
C      21.51      16.79      16.70
C       6.91       7.35       9.35
C       2.38      15.52       0.73
C      10.68      18.35       6.29
C      -2.31      12.54       3.07
C      11.38      23.87       8.63
C      16.50      14.66      17.99
C       8.19      11.84      12.42
C      21.19      17.65      15.65
C       7.50       6.32      10.09
C       6.15      25.84      16.51
C      13.75      17.75       8.45
C      -4.16      15.06       0.91
C      12.56      21.77      11.57
C      12.73       4.35       2.21
C       5.13      12.43      10.27
C      23.04      15.13      17.81
C       6.31       8.42       7.15
N      26.61      12.68      18.68
N       5.70       8.99       2.81
N      13.51       4.04       6.55
N       1.39      14.62       9.39
N      -7.73      17.51       0.03
N      13.18      21.20      15.90
N       5.37      26.15      12.17
N      17.49      15.57       9.32
O      17.74       1.35       0.38
O       6.65      11.29       4.46
O      15.19       5.88       4.90
O       1.47      11.67       8.98
O       1.14      28.83      18.34
O      12.23      18.89      14.26
O       3.69      24.31      13.82
O      17.41      18.52       9.74
O      15.75       2.06       1.22
O       6.17      12.15       6.50
O      16.17       5.81       2.85
O       2.95      10.17       8.14
O       3.13      28.13      17.49
O      12.71      18.03      12.21
O       2.71      24.38      15.86
O      15.93      20.02      10.58
O       3.45      13.03       7.10
O      15.60       2.99       3.98
O       3.86      10.43       5.38
O      18.13       3.73       2.26
O      15.43      17.15      11.62
O       3.28      27.19      14.74
O      15.01      19.75      13.34
O       0.75      26.46      16.46
O       3.87      15.16       7.66
O       4.58      21.63       4.76
O       3.26       8.42       4.60
O      19.87       5.02       1.70
O      15.01      15.02      11.06
O      14.30       8.55      13.96
O      15.62      21.77      14.12
O      -0.99      25.17      17.02
O       6.28      25.74      15.23
O      14.84      17.08       8.30
O      -5.23      15.76       1.06
O      12.41      21.85      12.84
O      12.60       4.45       3.49
O       4.04      13.11      10.42
O      24.11      14.43      17.65
O       6.46       8.34       5.87
O       5.07      26.04      17.13
O      13.44      18.44       9.46
O       2.76      25.21      18.61
O      13.21      20.88      10.95
O      13.81       4.15       1.59
O       5.44      11.75       9.25
O      16.12       4.98       0.10
O       5.67       9.31       7.77
