68

Al       3.96      -5.03       8.71
Al       3.96       5.03       2.90
H       1.13      13.62       4.67
H       2.03      12.59       3.53
H       2.90      13.63       4.70
H       1.13       6.49       6.94
H       2.03       7.52       8.07
H       2.90       6.48       6.91
H       1.13      -0.80       9.46
H       2.03       0.70       9.13
H       2.90      -0.83       9.45
H       1.13       0.80       2.15
H       2.03      -0.70       2.48
H       2.90       0.83       2.15
H       1.13      12.31      11.99
H       2.03      11.85      13.45
H       2.90      12.33      11.97
H       1.13      -2.26      17.03
H       2.03      -1.79      15.57
H       2.90      -2.28      17.05
C       1.97      -5.03      10.76
C       1.97      13.30       7.68
C       1.97      -3.25       7.68
C       1.97       6.81       3.93
C       1.97       3.25       3.93
C       1.97       5.03       0.85
C       2.01      11.86       5.56
C       2.01       8.24       6.05
C       1.97      12.02       6.94
C       1.97       8.08       4.67
C       1.94       9.63       6.36
C       1.94      10.48       5.25
C       2.01      -0.69       7.49
C       2.01       0.69       4.11
C       1.97      -1.97       6.94
C       1.97       1.97       4.66
C       1.94      -0.27       5.16
C       1.94       0.27       6.45
C       2.01      -6.14      13.06
C       2.01      -3.91      15.96
C       1.97      -5.03      12.24
C       1.97      -5.02      16.78
C       1.94      -4.33      14.60
C       1.94      -5.72      14.42
C       2.02      12.98       4.56
C       2.02       7.13       7.05
C       2.02      -0.38       8.96
C       2.02       0.38       2.65
C       2.02      12.54      12.60
C       2.02      -2.48      16.42
S       1.88      10.53       7.83
S       1.88       9.57       3.78
S       1.88      -1.99       5.21
S       1.88       1.99       6.40
S       1.88      -3.52      13.08
S       1.88      -6.54      15.94
O       1.05      -4.09       7.41
O       1.05      -4.37      10.17
O       1.05      13.48       8.54
O       2.90      -3.43       8.54
O       2.90      14.14       7.41
O       2.90      -5.68      10.17
O       1.05       4.37       1.44
O       1.05       6.62       3.07
O       1.05       4.09       4.20
O       2.90       5.68       1.44
O       2.90       3.43       3.07
O       2.90       5.97       4.20
