268

Co      10.26       8.70       8.69
Co      14.32      17.39       0.00
Co      18.40       8.70       8.70
Co      22.47      17.39       0.00
H      12.31      12.27      10.48
H      12.31       5.12       6.91
H      16.38       1.78      13.82
H      16.38      15.61       3.58
H      20.46      10.48      12.28
H      20.46       6.92       5.12
H       8.23      13.82       1.78
H      24.53       3.58      15.61
H      14.16      13.50      11.61
H      14.17       3.89       5.78
H      18.23       2.91      12.59
H      18.23      14.48       4.81
H      22.31      11.62      13.50
H       6.02       5.78       3.89
H      10.08      12.59       2.91
H      10.09       4.81      14.48
H      15.98       9.74      12.67
H      15.98       7.65       4.72
H      20.06       3.98      16.34
H      20.05      13.42       1.05
H      24.13      12.67       9.74
H       7.84       4.72       7.65
H      11.90      16.35       3.97
H      11.91       1.05      13.42
H      14.11       8.53      11.55
H      14.11       8.86       5.84
H      10.03       2.86       0.16
H      26.33      14.53      17.23
H      22.26      11.56       8.54
H      22.26       5.84       8.86
H       1.89       0.16       2.86
H      18.18      17.23      14.54
H      14.88      13.85      13.82
H      14.88       3.54       3.57
H      18.96       5.11      12.24
H      18.96      12.28       5.16
H      23.03      13.82      13.85
H       6.73       3.58       3.54
H      10.81      12.24       5.11
H      10.81       5.16      12.28
H      16.61      15.11      15.06
H      16.61       2.29       2.33
H      20.68       6.36      10.98
H      20.69      11.04       6.41
H      24.76      15.06      15.11
H       8.46       2.34       2.29
H      12.54      10.98       6.36
H      12.54       6.41      11.03
H      19.64      12.48      13.44
H      19.64       4.90       3.96
H      23.71       4.74      13.60
H      23.71      12.65       3.79
H      27.79      13.44      12.49
H      11.49       3.95       4.91
H      15.56      13.61       4.74
H      15.56       3.79      12.65
H      17.90      11.22      12.22
H      17.90       6.17       5.18
H      21.98       3.51      14.87
H      21.97      13.88       2.52
H      26.05      12.21      11.22
H       9.75       5.18       6.18
H      13.83      14.87       3.52
H      13.83       2.53      13.88
H      18.09      14.80      16.92
H       1.81       2.60       0.47
H      22.17       8.22      11.28
H      22.17       9.18       6.10
H      26.25      16.92      14.80
H       9.95       0.48       2.60
H      14.03      11.29       8.22
H      14.02       6.11       9.18
H      11.68      16.10       0.72
H      11.70       1.28      16.68
H      23.91       9.41       9.98
H       7.62       7.99       7.41
H      19.84       0.71      16.11
H      19.83      16.68       1.29
H      15.76       9.98       9.41
H      15.76       7.42       7.99
H      22.34      16.08      14.81
H       6.05       1.31       2.59
H      10.13       6.11      10.01
H      10.13      11.29       7.38
H      30.49      14.80      16.09
H      14.19       2.58       1.32
H      18.27      10.01       6.11
H      18.27       7.38      11.28
H      20.72      14.70      13.49
H       4.43       2.69       3.91
H       8.50       4.79      11.39
H      24.80      12.61       6.00
H      28.87      13.48      14.70
H      12.57       3.91       2.69
H      16.65      11.39       4.79
H      16.65       6.00      12.61
C      11.99       9.60      10.27
C      11.98       7.79       7.12
C      16.06       1.57      16.49
C      16.05      15.81       0.91
C      20.13      10.28       9.61
C      20.13       7.12       7.79
C      24.20      16.48       1.58
C       7.91       0.91      15.82
C      13.09      10.33      10.97
C      13.08       7.06       6.42
C      17.16       2.27      15.76
C      17.15      15.12       1.64
C      21.23      10.97      10.33
C      21.23       6.43       7.06
C       9.00      15.76       2.27
C       9.01       1.63      15.13
C      13.11      11.73      10.98
C      13.11       5.66       6.41
C      17.18       2.28      14.36
C      17.18      15.11       3.04
C      21.26      10.98      11.74
C      21.26       6.41       5.66
C       9.03      14.36       2.29
C       9.03       3.04      15.11
C      14.14      12.41      11.62
C      14.15       4.98       5.78
C      18.22       2.91      13.68
C      18.21      14.48       3.72
C      22.29      11.62      12.41
C       6.00       5.78       4.98
C      10.07      13.68       2.92
C      10.07       3.72      14.48
C      15.20      11.70      12.23
C      15.20       5.68       5.16
C      19.27       3.53      14.38
C      19.27      13.86       3.01
C      23.34      12.24      11.71
C       7.05       5.16       5.69
C      11.12      14.38       3.53
C      11.12       3.01      13.86
C      15.18      10.30      12.19
C      15.18       7.09       5.20
C      19.25       3.49      15.79
C      19.25      13.90       1.61
C      23.33      12.19      10.30
C       7.03       5.20       7.09
C      11.10      15.79       3.49
C      11.11       1.61      13.90
C      14.13       9.62      11.57
C      14.13       7.77       5.82
C      18.21       2.88      16.47
C      18.20      14.52       0.93
C      22.28      11.58       9.62
C      22.28       5.82       7.77
C      10.05      16.47       2.88
C      10.06       0.93      14.52
C      16.26      12.44      12.94
C      16.26       4.95       4.45
C      20.34       4.24      13.65
C      20.33      13.15       3.74
C      24.41      12.94      12.44
C       8.11       4.45       4.96
C      12.19      13.65       4.24
C      12.19       3.75      13.15
C      15.92      13.54      13.74
C      15.93       3.85       3.65
C      20.00       5.04      12.54
C      20.00      12.35       4.85
C      24.08      13.74      13.55
C       7.78       3.65       3.85
C      11.85      12.54       5.04
C      11.85       4.85      12.35
C      16.89      14.24      14.46
C      16.90       3.15       2.94
C      20.97       5.76      11.85
C      20.97      11.64       5.54
C      25.04      14.46      14.24
C       8.74       2.94       3.15
C      12.82      11.85       5.75
C      12.82       5.55      11.64
C      18.24      13.86      14.35
C      18.25       3.53       3.04
C      22.32       5.65      12.22
C      22.32      11.74       5.17
C      26.39      14.35      13.87
C      10.09       3.04       3.53
C      14.17      12.22       5.65
C      14.17       5.17      11.74
C      18.59      12.78      13.53
C      18.59       4.61       3.86
C      22.66       4.83      13.31
C      22.66      12.56       4.08
C      26.74      13.53      12.78
C      10.44       3.86       4.62
C      14.52      13.31       4.83
C      14.52       4.09      12.56
C      17.61      12.06      12.85
C      17.62       5.33       4.54
C      21.69       4.15      14.03
C      21.69      13.24       3.36
C      25.76      12.85      12.06
C       9.46       4.54       5.34
C      13.54      14.03       4.15
C      13.54       3.37      13.24
C      19.26      14.62      15.09
C       2.97       2.77       2.30
C      23.34       6.39      11.46
C      23.34      11.00       5.93
C      27.41      15.09      14.63
C      11.11       2.30       2.77
C      15.19      11.47       6.39
C      15.19       5.93      11.00
C      19.03      15.04      16.41
C       2.74       2.35       0.98
C      23.10       7.71      11.04
C      23.10       9.68       6.35
C      27.18      16.41      15.05
C      10.88       0.98       2.35
C      14.96      11.04       7.71
C      14.95       6.35       9.68
C      19.99      15.78      17.08
C       3.70       1.61       0.32
C      24.07       8.38      10.30
C       7.77       9.02       7.09
C      28.14      17.07      15.79
C      11.84       0.31       1.61
C      15.92      10.31       8.38
C      15.92       7.09       9.02
C      21.40      15.75      15.24
C       5.11       1.64       2.16
C       9.18       6.54      10.34
C       9.18      10.86       7.05
C      29.55      15.23      15.75
C      13.25       2.16       1.65
C      17.33      10.34       6.53
C      17.33       7.05      10.86
C      20.49      14.98      14.51
C       4.20       2.41       2.88
C       8.27       5.81      11.11
C      24.57      11.58       6.29
C      28.64      14.51      14.99
C      12.34       2.88       2.41
C      16.42      11.11       5.81
C      16.42       6.29      11.58
N      21.16      16.15      16.50
N       4.87       1.24       0.90
N       8.94       7.80       9.94
N       8.94       9.59       7.45
N      29.31      16.50      16.16
N      13.01       0.89       1.25
N      17.09       9.94       7.80
N      17.09       7.46       9.59
O      11.06      10.29       9.68
O      11.06       7.10       7.70
O      15.13       0.99      15.80
O      15.12      16.40       1.60
O      19.21       9.69      10.29
O      19.21       7.71       7.10
O      23.27      15.80       0.99
O      23.28       1.59      16.41
O      11.98       8.34      10.21
O      11.98       9.05       7.18
O       7.90       1.51       0.36
O      24.19      15.87      17.04
O      20.13      10.22       8.34
O      20.13       7.18       9.06
O      16.05       0.36       1.52
O      16.05      17.04      15.88
