228

Zn       7.47       8.93      15.56
Zn      26.93      10.72      18.18
Zn       8.88      11.86      15.61
Zn      25.40      11.74      15.56
Zn      18.26       7.30       8.82
Zn      16.77       4.47       8.66
Zn      18.58       5.47       6.19
Zn      19.99       4.57       8.85
Zn      16.07      16.25      22.35
Zn      17.58      15.36      25.01
Zn      15.73      18.00      25.04
Zn      14.35      15.17      24.88
Zn      17.50       4.95      31.91
Zn      14.31       4.86      31.75
Zn      24.60      19.81      31.76
Zn      18.34      17.63       1.96
H      23.03       5.87      11.39
H      20.63       9.44      11.49
H       5.06       6.96      12.93
H      11.25      13.37      22.67
H      13.67      14.74      19.38
H       9.62      12.39      21.03
H      13.25       5.58      11.16
H      19.14      14.73      19.47
H      16.13      19.67      19.56
H      29.08      18.54      11.21
H      12.24       1.46       4.98
H      14.40       2.94       1.57
H      13.95       2.49       6.48
H      18.25      14.20       4.83
H       4.65       2.65       1.31
H      22.08      17.61      29.20
H      11.32       3.65      29.13
H      20.37      16.63      27.66
H      13.82       8.55      29.25
H      21.07       3.74      29.51
H      23.97      11.72      12.97
H      10.36      14.20      16.66
H      17.92       3.60       3.99
H      16.43      19.36      27.59
C       7.34       7.78      18.26
C       9.67      12.42      18.42
C      10.03       9.52      14.25
C      26.93      13.90      14.25
C      24.68       9.38      13.92
C      24.34      12.12      18.25
C      15.66       6.75      10.14
C      16.12       3.82       5.88
C      18.37       8.40       6.08
C      21.16       4.12       6.16
C      20.75       6.96      10.40
C      18.37       2.41      10.04
C      18.66      14.85      22.30
C      18.21      17.70      26.65
C      16.01      19.21      22.38
C      13.16      17.49      26.31
C      13.55      14.70      22.08
C      16.03      13.27      26.38
C      15.90       6.97      30.46
C      22.11      20.14      30.20
C      27.22      20.31      30.48
C      18.43      14.69       2.01
C      12.21       1.51       2.26
C       7.10       1.32       1.98
C      23.60       8.81      13.05
C      21.74       7.59      11.33
C      22.44       9.50      12.64
C      22.87       6.89      11.75
C      21.52       8.89      11.79
C      23.79       7.50      12.60
C      10.71      13.03      19.30
C      12.56      14.12      21.13
C      11.87      13.70      18.84
C      11.41      13.46      21.59
C      12.78      14.23      19.75
C      10.51      12.92      20.68
C      12.29       9.67      12.98
C      13.43       6.63      11.38
C      11.14       9.02      13.43
C      14.56       7.30      10.95
C      12.60       7.49      12.12
C      13.12       8.80      12.23
C      23.09      12.64      20.46
C      19.90      14.30      20.13
C      23.24      12.63      19.07
C      19.77      14.30      21.51
C      21.11      13.69      19.74
C      21.87      13.24      20.84
C       7.27       6.45      20.48
C       7.45       2.85      20.21
C       7.34       6.58      19.10
C       7.39       2.75      21.59
C       7.41       4.20      19.80
C       7.32       5.10      20.89
C      25.82      15.83      12.93
C      28.06      18.21      11.39
C      26.90      15.13      13.44
C      26.96      18.89      10.87
C      27.64      17.09      12.14
C      26.24      16.95      12.18
C      15.14       3.27       4.89
C      13.22       2.12       3.18
C      15.26       3.40       3.48
C      13.09       2.00       4.57
C      14.30       2.83       2.64
C      14.04       2.57       5.40
C      18.51       9.74       3.87
C      18.34      13.34       4.18
C      18.40       9.60       5.25
C      18.44      13.45       2.80
C      18.37      11.99       4.57
C      18.49      11.10       3.48
C       3.79       2.88       5.79
C       4.85       2.48       2.36
C       2.64       3.54       5.38
C       6.00       1.85       2.80
C       4.04       2.86       3.45
C       4.59       2.49       4.70
C      19.19      18.41      27.54
C      21.11      19.53      29.27
C      19.08      19.76      27.97
C      21.23      18.20      28.85
C      20.03      20.30      28.82
C      20.29      17.66      27.99
C      17.11      11.33      27.72
C      14.84       8.88      29.12
C      16.05      12.04      27.18
C      15.93       8.20      29.65
C      15.28      10.02      28.41
C      16.68      10.18      28.42
C      30.52      17.37      27.58
C      29.47      20.40      29.26
C      31.68      18.01      27.13
C      28.32      19.75      29.68
C      30.28      19.53      28.50
C      29.72      18.24      28.36
S      11.08       7.34      12.93
S      14.62       8.97      11.43
S      21.88      13.34      18.25
S      21.11      13.56      22.35
S       7.46       5.03      18.30
S       7.29       4.29      22.40
S      28.43      15.84      13.01
S      25.43      18.17      11.28
S      18.28      11.14       6.07
S      18.57      11.93       1.98
S       2.54       3.68       3.64
S       6.10       1.69       4.53
S      14.51      11.29      27.53
S      17.47       8.93      29.30
S      31.78      19.66      27.67
S      28.21      18.09      29.16
S      21.98      11.15      13.21
S      12.35      13.83      17.11
S      16.53       4.36       2.65
S      17.81      20.90      27.40
Br      12.77      11.45      13.27
Br      24.28      11.95      21.73
Br       7.13       7.83      21.75
Br      24.00      15.42      13.12
Br      18.68       8.37       2.60
Br       4.31       2.50       7.56
Br      18.94      11.75      27.58
Br      29.99      15.60      27.25
O       7.36      10.78      16.22
O       7.50       7.60      17.00
O       8.99      11.48      18.92
O      10.15      10.70      14.71
O       7.19       8.90      18.85
O       9.05       8.71      14.42
O       9.48      12.89      17.24
O       8.47      13.41      14.48
O      24.85      10.66      13.96
O      25.81      13.43      14.65
O      25.41       8.55      14.55
O      25.41      11.75      18.85
O      24.13      12.11      16.99
O      18.39       5.46       8.14
O      16.60       7.57       9.84
O      15.68       4.04       7.05
O      18.39       7.27       5.49
O      15.59       5.52       9.82
O      18.32       8.60       7.35
O      17.34       4.02       5.53
O      20.24       4.70       5.48
O      20.99       5.75      10.05
O      21.21       4.00       7.43
O      19.77       7.67      10.02
O      17.24       2.82       9.60
O      19.51       2.95       9.84
O      15.94      16.19      24.31
O      17.71      15.41      21.66
O      18.65      16.71      25.99
O      15.95      19.35      23.65
O      18.75      14.71      23.58
O      16.06      18.11      21.72
O      16.99      18.10      26.62
O      14.07      18.35      26.01
O      13.32      14.54      23.33
O      13.13      16.27      25.96
O      14.55      15.31      21.56
O      17.13      13.87      26.19
O      14.87      13.62      25.95
O      15.90       3.95      32.47
O      17.04       6.52      30.84
O      21.92      21.35      30.55
O      26.25      19.52      30.74
O      14.75       6.46      30.71
O      18.73       3.84      30.85
O      23.08      19.40      30.57
O      18.49      14.54       0.74
O      11.23       0.89       2.80
O      18.36      15.79       2.65
O      12.41       1.65       1.01
O       6.99       1.46       0.72
O       8.07       0.78       2.62
O      23.12      12.04      12.54
O      20.76      11.53      12.57
O      22.10      11.18      14.64
O      11.19      14.75      16.52
O      13.55      14.60      17.03
O      12.28      12.51      16.54
O      17.85       3.55       2.99
O      16.34       4.23       1.23
O      16.56       5.66       3.27
O      16.49      20.27      28.03
O       9.39       4.47      28.06
O      17.77      20.83      25.96
