72

Al       0.64       6.28       8.75
Al       3.97       6.28       8.77
Al       3.90      12.46      17.46
Al       0.69      12.58       0.01
H       3.72       2.48      14.25
H       0.09       2.30      13.87
H       3.65       3.71      12.11
H       0.05       3.77      12.24
H       1.03       3.94       5.41
H       4.62       3.74       5.23
H       4.81       2.41       3.52
H       3.12       9.51      14.24
H       0.25       8.59      12.08
H       3.28       9.15      12.08
H       0.32      10.24       3.44
H       3.35       9.75       3.29
H       0.30       8.64       5.33
H       3.35       9.07       5.46
H       5.58      10.27      12.19
H       6.23      11.84      12.76
H       4.80      11.13      13.57
H       2.31       4.60       9.23
H       5.63       7.95       8.29
H       2.55       1.64       0.51
H       5.61      10.85      16.93
C       2.31       7.88      10.58
C       2.30       7.83       6.90
C       5.63       4.74       6.89
C       5.65       4.75      10.65
C       4.67       2.68      13.75
C       5.78       2.17      14.31
C       4.63       3.47      12.53
C       5.71       3.94      11.87
C       0.07       3.64       4.97
C       5.62       3.98       5.62
C       0.15       2.91       3.72
C       5.80       2.33       3.07
C       1.10       9.79      13.71
C       2.18       9.98      14.52
C       1.18       9.01      12.47
C       2.31       8.76      11.78
C       1.27       9.85       3.79
C       2.36      10.15       3.05
C       1.27       9.02       4.98
C       2.36       8.70       5.72
C       2.31      11.03       1.86
C       2.23      10.86      15.69
C       5.77       1.39      15.57
C       5.84       1.53       1.83
C       5.75      10.90      13.08
O       3.43       7.53       7.43
O       1.19       7.57      10.07
O       0.11       5.12      10.18
O       1.16       7.44       7.32
O       0.09       5.00       7.42
O       3.46       7.52      10.17
O       2.31       5.46       8.79
O       4.49       5.07       7.35
O       4.52       5.04      10.14
O       5.64       7.09       8.73
O       1.15      11.15      16.30
O       3.42      11.23       1.28
O       4.70       1.09       1.44
O       3.40      11.29      16.02
O       4.66       1.17      16.14
O       1.17      11.50       1.53
O       2.42       0.73      17.48
O       0.25       1.00      15.97
O       0.27       1.33       1.24
O       5.57      11.66      17.47
O      -0.13      10.25      14.08
F       1.42       2.85       3.24
