168

Sr       1.74       4.37       3.98
Sr       4.95       9.29       8.12
Sr      -1.46      10.41       1.80
Sr       0.14       2.38      12.10
Sr       3.34      -3.65       9.91
Sr       6.55       1.26       5.78
Sr      -0.13       3.83       8.15
Sr       6.27      -2.89       6.51
Sr       3.07      -0.95      13.15
Sr       1.47       7.08       0.75
Sr      -1.73      11.86       5.75
Sr       4.67       5.14       7.39
H       6.34       7.80       2.75
H      -0.06       6.50       5.77
H       3.14       9.77       5.38
H       4.74       1.75       8.52
H      -1.66      -0.23      11.15
H       1.54      -1.52       8.13
H       7.22       2.38       2.71
H       0.81       9.19      10.48
H       4.02      12.51       0.70
H      -3.99       4.48      13.20
H      -0.79      -5.64      11.18
H       2.42       1.16       3.42
H       4.46       6.87       4.28
H      -1.95       8.29       5.80
H       1.25       8.90       3.81
H       2.85       0.88      10.09
H       6.06      -1.15       9.62
H      -0.35       0.27       8.09
H       8.34       4.05       1.11
H       1.93       6.96       9.83
H       5.13      13.06       2.95
H      -2.88       5.03      10.95
H       0.33      -3.97      12.79
H       3.53      -1.06       4.07
C       5.49       6.54       4.29
C      -0.92       8.46       6.09
C       2.29       9.06       3.53
C       3.89       1.04      10.37
C      -2.52      -1.48       9.61
C       0.68       0.44       7.81
C      -2.30       5.46       4.72
C       0.90       9.38       6.81
C       4.11       9.23       2.37
C      -3.90       1.20      11.53
C      -0.70      -2.56       9.18
C       2.51       1.36       7.09
C      -1.98       6.42       3.75
C       1.22       8.06       6.46
C       4.43       9.59       3.68
C      -3.58       1.56      10.22
C      -0.38      -1.60      10.15
C       2.82       0.04       7.44
C      -1.43       4.51       5.45
C       1.78      10.48       7.27
C       4.98       9.08       1.19
C      -3.03       1.05      12.71
C       0.18      -3.51       8.45
C       3.38       2.46       6.63
C      -0.75       6.83       3.02
C       2.45       7.22       6.47
C       5.66      10.02       4.41
C      -2.35       1.99       9.49
C       0.85      -1.19      10.88
C       4.05      -0.80       7.43
C       7.28       4.05       1.36
C       0.87       7.18       9.71
C       4.08      12.84       2.83
C      -3.93       4.82      11.07
C      -0.73      -3.97      12.54
C       2.48      -0.85       4.19
C       5.38       3.44       2.31
C      -1.03       8.31       9.76
C       2.18      12.32       1.82
C       3.78       4.30      12.08
C      -2.63      -4.59      11.58
C       0.58       0.28       4.14
C       5.19       4.59       1.54
C      -1.22       7.06       9.16
C       1.98      12.42       3.20
C       3.58       4.40      10.70
C      -2.82      -3.44      12.36
C       0.38      -0.96       4.74
C       4.50       2.53       3.10
C      -1.91       9.45      10.16
C       1.30      12.10       0.64
C       2.90       4.07      13.26
C       6.10      -5.50      10.79
C      -0.31       1.42       3.74
C       4.03       5.49       1.35
C      -2.38       6.45       8.47
C       0.82      12.14       4.08
C       2.42       4.11       9.82
C       5.63      -2.54      12.55
C      -0.78      -1.58       5.43
N       5.97       5.56       5.05
N      -0.44       9.61       6.56
N       2.77       8.90       2.30
N       4.37       0.87      11.60
N      -2.04      -2.46       8.85
N       1.16       1.59       7.34
N       6.45       7.09       3.51
N       0.05       7.52       6.01
N       3.25       9.47       4.38
N       4.85       1.44       9.52
N      -1.55      -0.94      10.39
N       1.65      -0.50       7.89
N       6.72       3.14       2.18
N       0.31       8.35      10.09
N       3.52      12.59       1.63
N      -4.49       4.56      12.27
N      -1.29      -4.89      11.71
N       1.91       0.32       3.81
N       6.38       4.95       0.94
N      -0.02       6.37       9.15
N       3.18      12.76       3.81
N       4.78       4.74      10.09
N      -1.62      -3.08      12.96
N       1.58      -1.66       4.75
O      -0.20       4.86       5.67
O       3.00      10.50       6.85
O       6.21       8.71       1.38
O      -1.80       0.69      12.52
O       1.40      -3.16       8.23
O       4.60       2.48       7.04
O      -1.90       3.44       5.90
O       1.30      11.41       7.96
O       4.50       9.22       0.03
O      -3.51       1.19      13.87
O      -0.30      -4.58       8.00
O       2.90       3.39       5.94
O       0.18       5.98       2.84
O       3.38       7.49       7.30
O      -3.02      10.60       3.76
O      -1.42       2.58      10.14
O       1.78      -2.05      11.06
O       4.99      -0.54       6.60
O      -0.70       8.02       2.59
O       2.51       6.25       5.66
O      -3.90       9.80       5.66
O      -2.30       1.77       8.24
O       0.91      -0.00      11.31
O       4.11      -1.77       8.24
O       3.24       2.61       2.92
O      -3.17       9.25      10.18
O       0.04      12.21       0.80
O       1.64       4.19      13.10
O       4.84      -5.42      10.98
O       8.04       1.22       3.72
O       5.06       1.71       3.89
O       1.86      -5.51      10.48
O      -1.35       3.80      13.43
O       6.66      11.83       0.46
O       3.46       9.73      10.01
O       0.26       2.51       3.42
O       3.03       5.45       2.14
O      -3.38       7.15       8.10
O      -0.18      11.47       3.65
O       1.42       3.44      10.25
O       4.63      -2.57      11.76
O      -1.78      -0.87       5.79
O       4.08       6.33       0.39
O      -2.32       5.20       8.22
O       0.88      12.54       5.29
O       2.48       4.52       8.61
O      -3.92      -1.69      13.51
O      -0.72      -2.83       5.68
