196

Zn       7.09       8.94      16.64
Zn       9.91       9.20      16.59
Zn      10.00       8.97      31.86
Zn       7.18       9.23      31.91
H      11.93       7.74      17.88
H      14.42       7.49      18.00
H      14.70      10.79      15.22
H       2.33       7.48      18.28
H       5.04      10.13      15.16
H       2.54      10.31      15.01
H       6.69       4.98      16.50
H       6.45       2.49      16.45
H      10.74       2.15      16.38
H       6.12      15.89      16.66
H      10.29      13.24      16.61
H      10.42      15.73      16.48
H      10.73       8.99      20.86
H       6.50       9.09      20.77
H       6.35       9.01      27.64
H      10.58       9.12      27.73
H      10.46       9.19       2.96
H      10.52       9.18       5.45
H       6.31       8.27       5.49
H      10.45       8.32       9.86
H       6.29       9.27      12.37
H       6.23       9.22       9.87
H       5.16       7.77      30.61
H       2.66       7.53      30.48
H       2.03      10.66       0.12
H      14.75       7.51      30.21
H      11.70      10.02       0.16
H      14.20      10.19       0.31
H      10.40       5.01      32.02
H      10.64       2.52      32.04
H       6.35       2.18      32.02
H      10.98      15.91      31.77
H       6.80      13.28      31.87
H       6.68      15.77      31.96
H      12.68      11.64      14.23
H      11.10      10.85      14.57
H      11.74      12.07      15.67
H       5.24       6.17      18.07
H       5.98       7.57      18.85
H       4.40       6.94      19.43
H      12.13       3.92      16.31
H      11.53       5.46      15.61
H      11.61       5.27      17.36
H       5.31      12.76      15.85
H       5.54      12.53      17.57
H       4.83      14.06      16.97
H       5.37       9.12       2.48
H       5.97       7.53       2.00
H       5.16       7.74       3.59
H      11.37       9.23      12.86
H      10.78       7.65      13.36
H      11.59       7.84      11.78
H       4.05      11.51       1.10
H       5.63      10.72       0.77
H       5.36      12.09      32.82
H      11.84       6.20      30.42
H      11.11       7.60      29.64
H      12.69       6.96      29.06
H       4.97       3.95      32.19
H       5.56       5.55      32.74
H       5.46       5.20      31.02
H      11.77      12.79      32.62
H      11.55      12.54      30.90
H      12.27      14.07      31.48
H      12.02       9.15      26.61
H      12.12       9.08      22.05
H       4.96       9.09      26.45
H       5.07       9.14      21.89
C       8.81       6.47      16.56
C       8.63       9.05      19.23
C       8.22      11.66      16.65
C       8.34       9.00      14.01
C       8.28       6.50      31.94
C       8.45       9.08      29.27
C       8.87      11.69      31.83
C       8.40       8.89       1.33
C      12.59       8.39      17.31
C      13.97       8.26      17.38
C      14.77       9.13      16.61
C      14.12      10.10      15.82
C      12.72      10.18      15.81
C      16.18       9.04      16.62
C       0.82       8.97      16.63
C       2.23       8.90      16.65
C       2.90       8.08      17.57
C       4.30       8.03      17.59
C       4.39       9.56      15.83
C       3.01       9.66      15.75
C       8.82       4.97      16.48
C       7.57       4.34      16.48
C       7.43       2.96      16.45
C       8.59       2.15      16.43
C       9.85       2.78      16.41
C      10.00       4.17      16.43
C       8.47       0.74      16.45
C       8.34      17.39      16.49
C       8.27      15.98      16.54
C       7.04      15.30      16.63
C       6.95      13.91      16.67
C       8.15      13.16      16.64
C       9.38      13.84      16.59
C       9.46      15.22      16.53
C       9.81       9.02      21.45
C       9.81       9.03      22.85
C      11.03       9.04      23.61
C       7.39       9.06      21.40
C       7.33       9.05      22.80
C       6.09       9.05      23.51
C       7.27       9.03      27.05
C       7.27       9.04      25.65
C       6.05       9.04      24.89
C       9.69       9.08      27.10
C       9.75       9.06      25.70
C      11.00       9.06      24.99
C       8.62       9.04      20.73
C       8.56       9.04      23.54
C       8.46       9.06      27.77
C       8.53       9.04      24.96
C       8.35       8.80       2.82
C       9.55       9.01       3.53
C       9.58       9.00       4.92
C       8.40       8.75       5.64
C       7.21       8.50       4.93
C       7.16       8.52       3.53
C       8.39       8.75       7.06
C       8.36       8.76       8.28
C       8.35       8.79       9.70
C       9.54       8.55      10.42
C       9.59       8.60      11.81
C       8.39       8.89      12.51
C       7.20       9.09      11.80
C       7.16       9.05      10.41
C       4.49       8.42      31.18
C       3.12       8.29      31.11
C       2.32       9.16      31.89
C       2.97      10.12      32.68
C       4.36      10.21      32.69
C       0.91       9.07      31.87
C      16.27       9.00      31.86
C      14.85       8.93      31.84
C      14.18       8.11      30.92
C      12.79       8.06      30.90
C      12.70       9.60      32.66
C      14.08       9.69      32.74
C       8.26       4.99      31.99
C       9.52       4.37      32.01
C       9.66       2.99      32.02
C       8.51       2.18      32.01
C       7.24       2.81      32.02
C       7.09       4.20      32.02
C       8.63       0.77      31.98
C       8.76      17.42      31.94
C       8.83      16.01      31.89
C      10.06      15.33      31.81
C      10.14      13.93      31.78
C       8.94      13.19      31.82
C       7.71      13.87      31.87
C       7.64      15.25      31.91
C      12.03      11.24      15.01
C       5.02       7.14      18.55
C      11.39       4.73      16.42
C       5.58      13.28      16.78
C       5.84       8.20       2.86
C      10.90       8.31      12.49
C       4.71      11.11       0.32
C      12.07       7.17      29.94
C       5.69       4.75      32.00
C      11.51      13.30      31.69
N      11.98       9.32      16.55
N       5.02       8.78      16.73
N       5.11       9.35      31.95
N      12.06       8.81      31.77
O       7.69       7.00      16.83
O       9.89       7.12      16.34
O       9.75       8.88      18.64
O       7.51       9.23      18.65
O       9.36      11.15      16.90
O       7.16      11.00      16.40
O       7.23       8.75      14.58
O       9.41       9.36      14.60
O       9.40       7.03      31.66
O       7.20       7.15      32.15
O       7.33       8.91      29.86
O       9.58       9.26      29.85
O       7.72      11.17      31.59
O       9.93      11.03      32.09
O       9.50       8.63       0.75
O       7.32       9.24       0.73
O      12.20       9.07      25.66
O      12.26       9.04      23.01
O       4.83       9.05      25.49
O       4.89       9.07      22.84
