142

Cu       0.01       7.34       1.93
Cu       6.41       7.47       3.93
Cu       8.29       7.34       7.07
Cu       1.90       7.47       5.07
Cu       6.81       4.28      16.07
Cu       0.41       4.15      14.06
Cu      -1.47       4.28      10.93
Cu       4.93       4.15      12.93
Mo      -0.74       7.20       4.50
Mo       7.56       4.42      13.50
H       3.85       6.67       2.82
H       2.77       5.03       1.23
H       6.69       3.36       0.56
H       7.59       5.06       2.16
H       1.80       2.78      17.02
H       0.22       3.50      17.31
H       2.85       2.03       1.33
H       4.44       1.32       1.07
H       0.76       0.48      16.82
H      -0.76       1.32      16.95
H      -2.00      10.93      16.45
H       6.75       8.87      17.38
H       2.36       9.01       2.77
H       3.47      11.05       1.98
H       4.46       6.67       6.18
H       5.53       5.03       7.76
H       1.61       3.36       8.44
H       0.71       5.06       6.84
H       3.54       2.78       9.97
H       5.12       3.50       9.69
H       5.45       2.03       7.67
H       3.86       1.32       7.93
H       4.58       0.48      10.18
H       6.10       1.32      10.05
H       7.34      10.93      10.54
H      -1.40       8.87       9.61
H       5.94       9.01       6.23
H       4.83      11.05       7.02
H       2.97       4.96      15.18
H       4.05       6.59      16.76
H       0.13       8.27      17.44
H      -0.77       6.57      15.84
H       5.03       8.84       0.97
H       6.61       8.13       0.69
H       3.97       9.59      16.67
H       2.38      10.31      16.93
H       6.06      11.14       1.18
H       7.58      10.31       1.05
H       8.82       0.69       1.54
H       0.08       2.75       0.61
H       4.46       2.62      15.23
H       3.35       0.58      16.01
H       2.37       4.96      11.81
H       1.29       6.59      10.23
H       5.21       8.27       9.56
H       6.11       6.57      11.16
H       3.28       8.84       8.03
H       1.70       8.13       8.31
H       1.37       9.59      10.33
H       2.96      10.31      10.06
H       2.24      11.14       7.82
H       0.72      10.31       7.95
H      -0.52       0.69       7.46
H       8.23       2.75       8.39
H       0.88       2.62      11.77
H       1.99       0.58      10.98
C       4.76       8.31       4.36
C       4.43       5.91       2.28
C       3.85       4.99       1.41
C       4.65       4.05       0.76
C       6.02       4.07       1.04
C       6.53       5.02       1.92
C       1.08       3.05      17.82
C       3.59       1.77       0.55
C      -0.00       0.79      17.55
C       2.32      11.18       0.13
C      -1.66      10.53      17.41
C      -2.25       9.39      17.92
C       2.06       9.46       1.82
C       2.69      10.61       1.36
C       3.54       8.31       4.64
C       3.87       5.91       6.72
C       4.45       4.99       7.59
C       3.66       4.05       8.24
C       2.28       4.07       7.96
C       1.78       5.02       7.08
C       4.26       3.05       9.18
C       4.72       1.77       8.45
C       5.35       0.79       9.44
C       5.98      11.18       8.87
C       7.00      10.53       9.58
C       7.59       9.39       9.07
C       6.24       9.46       7.18
C       5.61      10.61       7.64
C       2.06       3.31      13.64
C       2.39       5.71      15.72
C       2.97       6.63      16.59
C       2.18       7.58      17.24
C       0.80       7.56      16.96
C       0.30       6.61      16.07
C       5.74       8.58       0.18
C       3.24       9.85      17.45
C       6.83      10.83       0.44
C       4.50       0.44      17.86
C       8.48       1.09       0.59
C       9.07       2.24       0.07
C       4.76       2.17      16.18
C       4.13       1.01      16.64
C       3.28       3.31      13.36
C       2.95       5.71      11.28
C       2.37       6.63      10.41
C       3.17       7.58       9.76
C       4.54       7.56      10.04
C       5.04       6.61      10.92
C       2.56       8.58       8.82
C       2.10       9.85       9.54
C       1.48      10.83       8.55
C       0.84       0.44       9.13
C      -0.18       1.09       8.41
C      -0.76       2.24       8.93
C       0.58       2.17      10.81
C       1.21       1.01      10.35
S       8.13       8.56       2.97
S       0.93       6.03       3.54
S       0.17       8.56       6.02
S       7.38       6.03       5.46
S      -1.31       3.07      15.02
S       5.90       5.59      14.46
S       6.65       3.07      11.97
S      -0.56       5.59      12.54
N       9.60       6.18       0.39
N       5.75       5.93       2.53
N       1.08       8.85       1.11
N      -1.29       6.18       8.60
N       2.55       5.93       6.47
N       7.22       8.85       7.89
N      -2.77       5.45      17.60
N       1.07       5.69      15.47
N       5.74       2.77      16.88
N       8.11       5.45       9.39
N       4.27       5.69      11.53
N      -0.40       2.77      10.11
