147

Al       0.06       6.96      12.08
Al       0.30      20.90      20.14
Al       4.05      20.91       4.02
H       2.10      12.84      22.30
H       2.47      37.00      20.14
H       1.91      12.84      18.00
H       2.09      12.86       1.87
H       1.87       9.14       4.02
H       2.29      12.84       6.17
H       2.25      23.05      12.08
H       2.50      26.77       9.94
H       2.11      26.77      14.22
C       2.31      32.79      12.08
C       2.10       7.98      13.85
C       2.10       7.98      10.31
C       2.33      18.86      20.13
C       2.33      21.91      21.91
C       2.33      21.92      18.38
C       2.02      21.91       2.25
C       2.02      18.87       4.04
C       2.03      21.93       5.78
C       2.33      38.77      21.36
C       2.10      12.30      21.36
C       2.06      13.01      20.15
C       2.01      12.30      18.94
C       2.09      10.91      18.93
C       2.37      38.08      20.14
C       1.59      16.67      21.15
C       1.49      15.28      21.13
C       2.11      14.49      20.15
C       2.83      15.21      19.17
C       2.90      16.60      19.16
C       2.28      17.35      20.16
C       2.93      38.49      23.81
C       2.74      23.89       0.85
C       2.06      22.68       0.96
C       1.54      36.12      23.98
C       1.59      36.82      22.78
C       2.30      38.03      22.64
C       1.62      36.82      17.48
C       1.61      36.12      16.28
C       2.09       8.73      15.15
C       2.77       9.95      15.30
C       2.76      10.64      16.51
C       2.08      10.17      17.65
C       2.03      10.91       2.80
C       2.09      12.31       2.81
C       2.14      13.02       4.02
C       2.18      12.31       5.23
C       2.08      10.91       5.24
C       1.98      10.22       4.02
C       2.73      16.66       3.04
C       2.78      15.27       3.04
C       2.13      14.50       4.03
C       1.44      15.23       5.01
C       1.41      16.62       5.02
C       2.05      17.36       4.03
C       1.42      10.64       0.36
C       1.61      23.88      23.31
C       2.29      22.67      23.20
C       2.81       8.26       0.18
C       2.76       8.96       1.38
C       2.06      10.17       1.52
C       2.76       8.95       6.68
C       2.77       8.25       7.88
C       2.09       8.73       9.02
C       1.41       9.95       8.86
C       1.41      10.64       7.66
C       2.08      10.17       6.52
C       2.32      24.82      10.86
C       2.27      24.13      12.08
C       2.23      24.83      13.30
C       2.21      26.23      13.28
C       2.31      26.93      12.08
C       2.38      26.22      10.87
C       1.64      22.16      15.96
C       1.59      22.86      14.76
C       2.24      24.09      14.58
C       2.94      24.57      15.71
C       2.96      23.89      16.92
C       2.31      22.66      17.07
C       2.88      22.84       9.39
C       2.78      22.14       8.19
C       2.08      22.66       7.10
C       1.47      23.90       7.26
C       1.55      24.59       8.47
C       2.26      24.09       9.57
C       1.64      29.16      11.10
C       1.63      30.55      11.10
C       2.31      31.30      12.08
C       3.00      30.55      13.05
C       2.99      29.16      13.05
C       2.32      28.41      12.07
O       1.14       8.21      11.11
O       1.34      33.37      11.49
O       1.34      35.05      13.64
O       3.06       7.18      10.52
O       3.06       8.21      13.05
O       3.27      33.37      12.68
O       1.38      22.15      19.18
O       1.38      19.44      19.53
O       1.38      21.10      21.70
O       3.31      21.14      18.57
O       3.31      22.13      21.13
O       3.31      19.42      20.71
O       1.05      21.15       5.59
O       1.05      22.14       3.03
O       1.05      19.43       3.45
O       2.97      22.16       4.97
O       2.98      19.45       4.64
O       2.97      21.10       2.45
F       3.60      17.22      18.19
F       0.98      17.36      22.14
F       3.52      14.55      18.20
F       0.75      14.70      22.10
F       3.37      24.40       1.93
F       3.67      39.63      23.79
F       0.85      34.95      24.04
F       0.89      36.31      21.74
F       0.90      36.30      18.50
F       0.94      34.96      16.25
F       3.48      11.79      16.57
F       3.45      10.51      14.29
F       0.73      17.26       6.00
F       3.36      17.33       2.05
F       0.73      14.59       5.98
F       3.51      14.67       2.07
F       0.98      24.39      22.23
F       0.68      11.78       0.39
F       3.50       7.10       0.12
F       3.46       8.44       2.42
F       3.47       8.42       5.65
F       3.44       7.09       7.90
F       0.69      11.79       7.60
F       0.73      10.51       9.89
F       3.64      24.42      17.96
F       1.00      20.97      16.05
F       3.65      25.73      15.64
F       0.86      22.32      13.75
F       3.38      20.93       8.08
F       3.62      22.28      10.37
F       0.77      24.44       6.24
F       0.87      25.76       8.56
F       0.92      28.54      10.13
F       0.95      31.16      10.10
F       3.71      28.53      14.02
F       3.68      31.16      14.05
