92

Al       0.00       6.12      10.61
Al       0.00      18.37       3.54
H       2.15      10.39      10.62
H       2.02      12.88      10.64
H       1.79       8.24       6.91
H       1.91       9.48       4.74
H       2.15      14.11       3.52
H       2.02      11.62       3.51
H       1.79      16.25       7.23
H       1.91      15.02       9.40
H       2.15       4.00       6.91
H       2.02       2.77       4.74
H       1.79      26.35      10.62
H       1.91      23.86      10.64
H       2.15      20.49       7.23
H       2.02      21.72       9.40
H       1.79      22.63       3.52
H       1.91      25.13       3.51
H       2.15      28.47      14.29
H       2.02      27.22      16.44
H       1.79       8.27      14.29
H       1.91       9.53      16.44
H       2.15      32.76      21.06
H       2.02      34.02      18.91
H       1.79      28.47      21.06
H       1.91      27.22      18.91
C       1.97      30.62      12.67
C       1.97       7.91       9.58
C       1.97      28.83       9.58
C       1.97      16.58       4.57
C       1.97      20.16       4.57
C       1.97      18.37       1.47
C       2.06      10.40       9.53
C       2.01      11.63       8.85
C       2.00      12.89       9.54
C       1.87       9.19       7.44
C       1.92      10.39       6.71
C       1.94      10.43       5.28
C       2.06      14.09       4.61
C       2.01      12.86       5.29
C       2.00      11.61       4.60
C       1.87      15.30       6.71
C       1.92      14.10       7.43
C       1.94      14.07       8.86
C       1.97       9.20       8.83
C       1.97      11.63       7.43
C       1.97      15.29       5.31
C       1.97      12.86       6.72
C       2.06      27.55       7.44
C       2.01      26.35       6.71
C       2.00      26.32       5.28
C       1.87      26.34       9.53
C       1.92      25.11       8.85
C       1.94      23.85       9.54
C       2.06      21.44       6.71
C       2.01      22.64       7.43
C       2.00      22.67       8.86
C       1.87      22.65       4.61
C       1.92      23.88       5.29
C       1.94      25.13       4.60
C       1.97      27.54       8.83
C       1.97      25.11       7.43
C       1.97      21.45       5.31
C       1.97      23.88       6.72
C       2.06      29.41      14.85
C       2.01      29.38      16.25
C       2.00      28.16      17.00
C       1.87      31.83      14.85
C       1.92      31.85      16.25
C       1.94      33.08      17.00
C       2.06      31.83      20.50
C       2.01      31.85      19.10
C       2.00      33.08      18.36
C       1.87      29.41      20.50
C       1.92      29.38      19.10
C       1.94      28.16      18.36
C       1.97      30.62      14.16
C       1.97      30.62      16.97
C       1.97      30.62      21.20
C       1.97      30.62      18.39
O       2.89      29.67       9.30
O       2.89      29.96      12.08
O       2.89       7.73      10.44
O       1.04      29.02      10.44
O       1.04       7.07       9.30
O       1.04      31.27      12.08
O       2.89      19.02       2.06
O       2.89      16.77       3.71
O       2.89      19.32       4.84
O       1.04      17.72       2.06
O       1.04      19.97       3.71
O       1.04      17.42       4.84
