228

Zn      23.30      18.75      16.98
Zn      13.14       2.05      14.34
Zn      20.12      18.66      16.86
Zn      12.92       3.81      16.98
Zn      20.12       8.30      23.74
Zn      23.31       8.38      23.87
Zn      21.60       7.32      26.39
Zn      21.83       5.56      23.74
Zn      12.91      14.17      10.10
Zn      13.14      12.41       7.45
Zn      11.43      15.15       7.45
Zn      14.61      15.24       7.57
Zn      22.44       7.84       0.57
Zn      23.91      10.67       0.69
Zn       5.93       7.93       0.69
Zn      10.82      12.87      30.63
H      19.59      14.95      19.24
H      23.83      12.09      21.48
H      13.13       5.43      11.45
H      12.92      10.80      12.98
H      24.85      18.23      11.45
H       9.88      15.67      12.98
H       9.89       5.89      19.48
H       5.17       3.49      21.25
H      18.57       8.82      29.27
H      13.85      11.38      27.74
H      30.50      19.27      25.74
H      30.29      18.60      31.28
H      16.17      10.34       4.96
H      20.88      12.74       3.19
H       6.46       1.27       5.19
H      21.91       4.14       2.95
H      14.66       5.66      18.94
H      20.08       3.72      21.79
H      17.69       7.55      21.78
H      25.73      19.49      18.94
H      17.69      17.15      15.41
H      17.05      16.75       9.03
H      14.65      15.26      12.56
H      20.08      18.64      11.88
H      23.35       8.41      28.85
H      28.77      11.79      28.16
H      26.38      10.30      31.70
H      25.74       9.90      25.32
H       9.00      14.40       5.49
H       8.36       8.67       2.65
H      25.66      12.51       2.65
H      11.39      10.57       5.50
C      24.41      18.33      14.28
C      19.28      18.14      14.01
C      21.70      16.64      18.29
C      10.33       3.32      18.29
C      15.46       3.50      18.57
C      13.03       4.99      14.28
C      21.72      10.41      22.43
C      24.15       8.90      26.71
C      19.01       8.72      26.45
C      21.72       4.37      26.43
C      19.28       5.88      22.16
C      24.42       6.05      22.43
C      13.02      11.23      10.16
C      10.59      12.73       5.87
C      10.32      15.57      10.16
C      13.03      17.26       6.14
C      15.45      15.76      10.42
C      15.73      12.91       6.14
C      21.33      10.17       2.00
C       6.77      10.35       2.28
C       4.33       5.82       2.00
C      13.41      11.47      30.57
C      27.97      11.29      30.30
C      30.40      15.82      30.58
C      16.43       4.10      19.48
C      18.31       5.27      21.25
C      16.25       5.45      19.93
C      18.49       3.93      20.80
C      17.18       6.03      20.80
C      17.56       3.35      19.93
C      18.30      17.53      13.10
C      16.43      16.36      11.34
C      17.18      16.83      13.62
C      17.55      17.07      10.81
C      16.25      16.25      12.75
C      18.48      17.65      11.69
C      20.61      14.68      19.51
C      22.81      12.37      21.22
C      21.71      15.42      19.10
C      21.71      11.63      21.62
C      22.41      13.48      20.45
C      21.01      13.57      20.28
C      13.08       6.31      12.09
C      12.97       9.92      12.34
C      13.03       6.22      13.48
C      13.03      10.01      10.96
C      12.99       8.57      12.76
C      13.06       7.65      11.68
C      25.61      17.80      12.10
C      28.80      16.10      12.34
C      25.51      17.78      13.48
C      28.91      16.11      10.96
C      27.61      16.71      12.76
C      26.81      17.18      11.68
C       9.12       5.13      19.63
C       5.93       4.25      21.10
C       9.23       3.85      19.10
C       5.83       5.52      21.62
C       7.13       4.10      20.37
C       7.93       5.27      20.36
C      25.12       9.51      27.63
C      26.99      10.68      29.39
C      24.94       9.40      29.04
C      27.18      10.79      27.98
C      25.87       9.98      29.91
C      26.24      10.21      27.10
C      17.81       9.25      28.63
C      14.62      10.94      28.39
C      17.91       9.26      27.25
C      14.51      10.93      29.77
C      15.82      10.33      27.97
C      16.61       9.86      29.05
C      30.45      19.52      26.80
C      30.34      18.34      30.22
C      30.40      20.83      27.25
C      30.40      17.04      29.77
C      30.36      19.25      29.14
C      30.43      18.62      27.88
C       9.62      12.12       4.96
C       7.74      10.95       3.19
C       8.49      12.88       4.51
C       8.87      10.20       3.64
C       7.56      12.30       3.64
C       9.80      10.78       4.51
C      16.93      11.10       4.81
C      20.12      11.98       3.34
C      16.82      12.38       5.33
C      20.23      10.70       2.81
C      18.92      12.13       4.06
C      18.13      10.95       4.08
C       5.44       1.55       4.93
C       3.24       3.86       3.22
C       4.34       0.81       5.33
C       4.34       4.60       2.81
C       3.64       2.75       3.99
C       5.05       2.66       4.16
S      23.23      14.77      19.65
S      20.19      12.28      21.07
S      12.95       7.76      14.27
S      13.10       8.47      10.16
S      26.86      17.03      14.28
S      27.56      16.86      10.16
S       7.88       2.82      19.49
S       7.18       6.55      21.24
S      16.56      10.01      26.45
S      15.86      10.18      30.57
S      30.32      20.97      28.98
S      30.47      16.90      28.03
S      18.18      13.40       4.95
S      18.88       9.68       3.20
S       2.83       1.46       4.78
S       5.86       3.95       3.36
O      13.03       1.98      16.29
O      24.52      18.20      15.55
O      20.29      18.77      13.52
O      20.56      17.08      17.92
O      23.44      18.87      13.65
O      22.84      17.16      18.03
O      19.09      18.03      15.29
O      18.90      19.77      17.91
O      14.45       4.20      18.18
O      11.30       4.12      18.03
O      15.65       2.28      18.18
O      13.09       3.88      13.65
O      12.96       5.15      15.55
O      21.71       7.39      24.44
O      20.58       9.89      22.69
O      24.33       9.02      25.44
O      19.98       8.17      27.08
O      22.86       9.97      22.81
O      18.90       8.84      25.17
O      23.13       8.27      27.21
O      21.65       5.49      27.07
O      20.30       5.18      22.54
O      21.78       4.22      25.16
O      19.10       7.10      22.54
O      24.53       7.27      22.81
O      23.45       5.26      22.69
O      13.02      14.24       8.15
O      12.96      12.34      10.79
O      11.60      12.03       6.26
O      10.21      15.70       8.88
O      13.09      11.08       8.88
O      11.29      15.02      10.79
O      10.41      13.95       6.25
O      11.89      16.74       6.40
O      15.64      15.87       9.15
O      14.17      16.82       6.52
O      14.44      15.13      10.92
O      14.76      12.11       6.40
O      15.84      14.13       6.52
O      10.71      12.80      32.58
O      21.22       8.95       1.62
O       5.76      11.05       1.89
O       5.47       6.34       1.74
O      22.29      10.97       1.74
O      22.88       6.26       1.63
O       6.95       9.13       1.89
O      13.52      11.35      31.84
O      28.98      11.92      29.81
O      12.44      12.02      29.94
O      27.78      11.17      31.58
O      30.33      15.98      31.85
O      30.46      14.71      29.95
O      15.21       6.22      19.55
O      19.53       3.15      21.18
O      16.94       7.30      21.18
O      26.48      19.74      19.55
O      16.94      16.68      14.95
O      17.79      17.22       9.49
O      15.20      15.60      13.32
O      19.53      18.30      11.12
O      23.89       8.75      29.61
O      28.22      11.44      27.41
O      25.63       9.83      31.24
O      26.48      10.36      25.78
O       8.25      14.16       4.89
O       9.11       8.92       3.26
O      26.21      13.08       3.26
O      10.84      10.00       4.89
