63

Zn       7.33       8.15       6.36
Zn       9.92       8.17       8.20
Zn       7.90      10.49       8.53
Zn       9.50      10.26       5.67
H       9.94       7.50      12.47
H       8.29      10.58       1.69
H      10.96      13.41      12.68
H      11.75      15.55      13.60
H       7.72       6.14       3.43
H      14.10       9.21       8.55
H       7.32       3.85       3.63
H       6.69       2.90       2.39
H       3.24       9.19       6.31
H      13.95       9.60       5.49
H       3.51       9.60       9.36
H       8.87      14.93       8.11
H       9.43       3.83       8.13
H       7.37      14.38       5.47
H       6.60       2.54       0.48
H      10.08      11.76      12.06
C      12.15       9.42       6.71
C      10.24      10.88      12.69
C      10.14       8.47      12.91
C       5.24       9.40       8.00
C       7.84       8.53       2.12
C       3.79       9.42       8.32
C       2.87       9.30       7.33
C      13.61       9.44       6.51
C      14.49       9.31       7.53
C       7.90      14.18       6.40
C       8.28      15.18       7.23
C      11.67      14.67      14.25
C       8.58       4.22       7.56
C       7.75       3.30       7.02
C       8.58       5.69       7.44
C       8.27      12.77       6.68
C       9.48       9.52      10.74
C       8.10       8.76       3.57
C      10.55       8.58      14.22
C       9.95       9.64      12.14
C       7.94       9.63       1.27
C      11.22      13.46      13.74
C       7.07       7.17       0.21
C       7.44       7.25       1.59
C      10.73      11.02      14.00
C       6.76       4.71       0.47
C       7.16       4.83       1.85
C       7.45       6.07       2.38
Br       6.23       3.75       5.97
N       7.29       3.69       2.63
O       8.68       9.29       7.17
O       9.67       8.40      10.15
O       8.97       9.64       3.88
O       8.91      10.54      10.21
O       7.39       8.09       4.41
O       7.56       6.28       6.95
O       8.79      12.13       5.71
O      11.71       8.83       7.76
O       6.03       9.95       8.85
O      11.45      10.01       5.81
O       5.58       8.84       6.91
O       9.65       6.26       7.87
O       8.02      12.34       7.85
