70

Zn       9.86       5.95       7.06
Zn       2.99       5.88       7.42
H       5.02       8.16      12.93
H       8.14       5.07       1.71
H       3.31       5.56      11.78
H       9.64       6.92       2.74
H       5.22       7.43       8.72
H       7.62       4.39       5.75
H       8.82       6.78      11.16
H       4.12       5.68       3.35
H       0.57       7.44       0.35
H      12.51       5.52      14.25
H       7.22       7.63      11.97
H       5.94       5.55       2.65
H       5.35       2.04       9.09
H       4.75       2.24       7.41
H       5.11       0.59       8.05
H       8.88       9.21       4.01
H      10.49       8.82       4.69
H      10.26      10.32       3.72
H       3.45      10.04       8.43
H       9.40       1.80       5.98
H       7.78       7.50       8.49
H       5.06       4.34       5.95
C       1.59       3.30       7.30
C      11.26       8.54       7.13
C       7.04       7.45      13.03
C       6.08       5.64       1.58
C       5.81       7.76      13.56
C       7.32       5.37       1.05
C       2.46       0.99       7.98
C      10.40      10.85       6.40
C       2.75      10.66       7.87
C      10.11       1.18       6.52
C       1.76      10.04       7.10
C       1.54       1.80       7.29
C       5.77       6.76       8.06
C       7.07       5.07       6.40
C       7.16       6.80       7.93
C       5.69       5.03       6.52
C       1.83       5.98       4.61
C      11.03       6.09       9.86
C       2.09       6.26       3.17
C      10.85       6.18      11.34
C       1.35       7.04       1.01
C      11.70       5.81      13.57
C       1.07       6.76       2.33
C      11.91       5.84      12.21
C       3.37       6.05       2.66
C       9.62       6.55      11.87
C       3.68       6.30       1.31
C       9.38       6.57      13.26
C       2.64       6.81       0.46
C      10.45       6.16      14.13
C       4.99       6.05       0.75
C       8.10       6.93      13.83
C       4.73       1.60       8.31
C       9.79       9.64       4.45
N       7.79       5.95       7.11
N       5.05       5.88       7.35
O      10.05       3.91       7.12
O       2.81       7.93       7.28
O       2.72       3.85       7.46
O      10.12       7.99       7.04
O      10.18       5.98       5.02
O       2.67       6.03       9.43
O       2.85       5.78       5.35
O       9.99       6.08       9.14
O       3.40       1.53       8.84
O       9.38      10.36       5.62
