156

Zn     -12.09      12.44       8.29
Zn      -4.48      -0.88       8.22
Zn       3.22      12.41       8.29
Zn       4.70      13.41       5.66
Zn       3.05       3.49      14.56
Zn     -12.14       3.52      14.59
Zn       4.75       0.79      14.61
Zn      -4.59       8.07       2.02
H     -12.58       8.96      11.01
H      -9.14       1.13      12.31
H       9.12      -2.32      10.67
H      -8.01       0.47      10.50
H       0.06       0.60      12.69
H      -0.71       0.43      10.22
H       1.49      -0.93       5.13
H       2.71       7.11      12.28
H     -12.68       6.84      11.76
H       2.77       9.02      10.73
H       4.59       7.84       4.77
H      -1.40       9.20       4.73
H       4.27       9.48       5.35
H       3.55       8.93       3.82
H       5.54      10.45       3.42
H       5.82       8.84       2.77
H       7.23       8.22       4.66
H       6.70       9.61       5.59
H       8.20      -0.73       4.26
H      -1.90      14.38       3.22
H       6.59      -1.26       4.81
H      -1.71      12.53       4.96
H      -0.13      10.56       2.28
H      -0.65      13.55       5.92
H       0.98      13.60       3.95
H      -0.09      12.50       3.09
H      10.34       1.10       1.70
H      11.08      -0.51       1.57
H       9.53      -0.32       2.40
H      11.39      -0.57       4.07
H      10.65       1.03       4.21
H      12.45       1.98       2.75
H      13.23       0.39       2.67
H       0.89       9.75       5.70
H       4.83      -0.57       9.20
H       4.52      -2.32       9.29
H       4.12      -1.42       7.81
H       2.03      -1.86       9.10
H       2.35      -0.13       9.04
H       3.44      -0.30      11.35
H       2.99      -1.99      11.41
H     -10.25      10.89      11.52
H      -8.92      10.97      12.70
H     -10.60      11.11      13.25
H      -4.78       4.74       4.76
H      -0.46      -2.76      13.19
H      -1.77      -2.87      12.01
H      -0.08      -3.37      10.21
H       1.22      -3.17      11.41
H       8.96       6.50       0.34
H       7.38       6.37       1.13
H      -1.63       1.67      14.75
H       7.28       8.91       1.29
H       8.85       9.02       0.51
H       9.91       7.75       2.38
H      14.30       2.99       2.31
H       8.35       7.59       3.17
H      -4.22       2.63       6.00
H       7.28      -1.18      11.89
H      -9.60      13.84       5.57
C      13.63       0.20       5.49
C       4.74       6.62      12.15
C       3.72       8.61      11.07
C     -13.61      10.45       9.81
C     -13.57       9.27      10.70
C      -0.69       9.84       4.20
C      -0.86      10.01       2.88
C       0.42      10.40       4.96
C       0.89      11.66       4.85
C      -4.62       3.80       4.22
C      -4.38       3.88       2.89
C      -6.77      12.47       3.27
C      -4.61       2.57       4.99
C      13.36       1.36       4.58
C       8.21      -0.64      11.74
C      -1.95      -1.23       9.58
C     -10.06       0.55      12.37
C       9.22      -1.25      10.89
C      10.26      -0.60      10.35
C       1.33      -0.62      11.52
C       1.09       0.32      12.45
C       0.19      -1.35      10.92
C      -7.91      11.64       3.50
C      -0.79      -0.65      10.27
C      -2.01       9.48       2.11
C       2.12       1.03      13.24
C       4.67       5.43      13.02
C       2.11      12.02       5.64
C      -4.44       5.13       2.12
C     -11.13       1.14      13.19
C      -7.09       9.65       2.09
C      11.31      -1.27       9.57
C     -11.14      11.94       5.54
C      -8.95      12.16       4.35
C      -8.81      13.46       4.92
C      -7.70      14.22       4.69
C      -6.67      13.73       3.86
C       6.96       9.28       4.56
C       5.68       9.40       3.70
C       4.46       8.88       4.45
C       0.24      12.80       4.09
C      -0.97      13.33       4.89
C      -1.59      14.57       4.26
C      12.61       1.05       3.31
C     -10.09      11.37       4.63
C      11.25       0.38       3.55
C      10.51       0.15       2.23
C       2.69      -1.01      10.99
C       2.72      -1.08       9.45
C       4.12      -1.36       8.91
C       0.20      -2.84      11.13
C      -0.77      -3.25      12.26
C      -9.90      11.38      12.45
C       8.94       8.26       2.53
C       8.24       8.38       1.16
C       8.16      10.09       4.11
C       8.01       7.02       0.51
C       9.15       9.59       3.22
C      -8.12      10.33       2.95
C       3.68       7.41      11.88
Cl      -5.30      14.74       3.60
Cl      -5.48      11.99       2.23
O       4.77      13.40       7.61
O      14.13       4.98       0.85
O     -10.89       2.31      13.65
O      13.80      -0.93       4.90
O      -6.19       8.99       2.71
O       6.22       0.46      13.36
O      11.16       9.73       0.83
O       3.53       5.00      13.38
O      -4.66       6.23       2.73
O      -1.97       9.74       0.86
O       3.17       0.37      13.55
O      -2.04      -2.50       9.49
O     -12.47      10.86       9.39
O      -2.79      -0.39       9.09
O       2.25      11.53       6.81
O      -6.05      -0.58       9.37
O       6.25      12.42       4.96
O      11.10      -2.47       9.18
O     -10.92      11.90       6.79
O       2.94      12.79       5.04
O      -4.73       0.40       6.74
O       3.67      10.97       9.54
O      13.81       8.10       0.05
O      -2.93       8.85       2.73
O       1.86       2.24      13.59
O     -12.60       4.94      13.33
