158

Zn       3.93       3.76       7.26
Zn       2.29       5.21       8.89
Zn      14.55       7.50       0.30
Zn      -7.99       1.30      15.68
Zn       8.42      13.86       6.64
Zn      -8.07      12.92       8.57
H      -0.12       3.89       4.71
H       7.13       3.33      10.39
H       3.61       6.82       5.04
H       2.62       1.88      10.79
H       4.47       8.77       3.75
H       1.35       0.46      12.39
H      -1.58       4.92       2.98
H       8.29       2.39      12.39
H       3.65       9.18       7.22
H       1.44       0.43       8.98
H       6.48       5.78       9.05
H      -0.97       4.23       7.35
H       8.88       5.58       9.57
H      -3.10       4.56       6.14
H      10.43       7.47       9.00
H      13.58       2.60       5.60
H       9.57       9.52       8.02
H      14.27       0.32       6.26
H       5.18      11.09       6.72
H      -0.09      -1.49       8.64
H      -4.10       9.24       4.51
H      -6.42       0.33      11.54
H      13.65      12.10       0.72
H      -7.02      -2.84      15.11
H      12.64      14.31       0.27
H      -6.43      -5.19      15.46
H      -6.26      15.71       2.22
H      12.58      -6.55      13.55
H       0.20      -1.77       6.45
H       7.89      10.07      10.47
H      -5.21       1.11      14.81
H      11.74       9.37       1.23
C       4.32       6.75       8.14
C       1.08       2.94       8.36
C       2.17       4.95       5.70
C       4.55       3.23       9.80
C       3.06       7.18       4.17
C       3.10       1.50      11.69
C       3.56       8.24       3.46
C       2.38       0.74      12.58
C       2.92       8.59       2.25
C       2.99       0.37      13.79
C       1.74       8.00       1.81
C       4.31       0.66      14.11
C       1.11       7.02       2.65
C       5.12       1.31      13.12
C       1.86       6.54       3.78
C       4.47       1.81      11.93
C       1.40       5.40       4.50
C       5.21       2.57      10.98
C       0.22       4.77       4.16
C       6.57       2.77      11.14
C      -0.59       5.33       3.16
C       7.22       2.25      12.26
C      -0.20       6.45       2.44
C       6.53       1.52      13.23
C       7.15       6.61       8.84
C      -1.60       3.38       7.10
C       8.49       6.50       9.13
C      -2.79       3.56       6.43
C       9.36       7.56       8.82
C      -3.61       2.45       6.13
C       8.88       8.73       8.26
C      -3.23       1.17       6.49
C       7.49       8.90       7.98
C      -2.01       0.94       7.18
C       6.61       7.79       8.25
C      -1.18       2.08       7.50
C       5.22       7.92       7.96
C       0.07       1.86       8.15
C       4.72       9.09       7.42
C       0.47       0.59       8.52
C       5.58      10.17       7.13
C      -0.38      -0.50       8.28
C       6.94      10.10       7.41
C      -1.58      -0.36       7.60
C      -3.65      10.09       2.00
C      -7.33      -0.55      13.87
C      -1.27       7.10       1.63
C       7.42       0.93      14.28
C      13.77      -3.43       9.77
C      -6.85      12.60       6.17
C       7.74      11.35       7.24
C      -2.34      -1.63       7.41
C      -4.93      12.67       1.53
C      -6.57      -3.40      14.30
C      12.65      13.91       1.28
C      -6.24      -4.72      14.49
C      -5.95      14.68       2.36
C      12.41      -5.48      13.43
C      -5.96      14.18       3.66
C      12.65      -4.90      12.20
C      -5.59      12.82       3.91
C      12.47      -3.49      12.01
C      -4.95      12.11       2.83
C      -6.30      -2.75      13.07
C      -4.38      10.83       3.08
C      -6.58      -1.35      12.87
C      -4.52      10.23       4.31
C      -6.21      -0.73      11.70
C      -5.28      10.87       5.30
C      -5.51      -1.45      10.73
C      -5.85      12.12       5.15
C      12.92      -2.80      10.85
C      -0.36      -2.26       4.70
C      12.86      -5.81      11.04
C       1.30       8.19       0.40
C       4.79       0.29      15.49
N      -5.52      10.04       6.51
N      -5.02      -0.65       9.60
N       3.65       9.55       1.40
N       2.10      -0.30      14.77
O       4.64       5.68       7.54
O       0.76       4.00       9.03
O       3.27       6.88       8.88
O       2.23       2.71       7.87
O       3.15       4.14       5.51
O       3.62       4.07      10.05
O       1.79       5.42       6.80
O       5.01       2.93       8.64
O      14.04       8.92       1.73
O      -6.98       0.69      14.07
O      -2.67      10.67       1.44
O       9.83      -1.10      14.46
O      -2.36       6.44       1.41
O       8.41       1.64      14.65
O      -1.09       8.30       1.26
O       7.17      -0.26      14.70
O      13.40      -3.24       8.58
O      -6.57      12.38       7.41
O      -3.31      -4.05      10.16
O      10.21      13.11       5.73
O       7.33      12.25       6.41
O      -1.92      -2.61       8.11
O       8.78      11.48       7.96
O      14.83      -1.74       6.56
O      -0.99      -1.22       4.54
O       0.36      -2.52       5.84
O       6.44      11.80       9.97
O       7.86      10.61      11.29
O      -6.66       9.59       6.66
O      -4.55       9.81       7.23
O      -3.79      -0.54       9.49
O      12.27      -0.08       8.89
O       3.97      10.62       1.94
O       3.93       9.21       0.25
O       1.53      -1.32      14.37
O       8.03       8.54       0.14
O      -4.91      -1.09      15.40
O       1.16       9.48       0.01
O      10.74       7.51       0.26
O      11.38       9.70       0.37
