138

Zn       4.25       6.89      11.76
Zn       1.65       7.47      11.06
H       1.14       9.81      22.08
H       4.70       4.59       0.74
H       6.86      10.90       1.65
H      -1.00       3.50      21.17
H       2.73       8.17       4.38
H      -0.60       8.02      17.54
H       2.08       8.01       6.80
H       0.06       8.15      15.12
H       6.07       6.81       7.81
H       3.56       5.82      15.94
H       6.73       6.95       5.38
H       2.89       5.65      18.36
H       7.32       0.18      13.16
H      -1.86      14.12      11.59
H       4.04       2.82      11.94
H       1.66      11.50      11.71
H      -0.09       3.31      10.97
H       5.81      11.02      12.61
H       6.02      13.47      13.05
H      -0.45       0.85      11.19
H       5.42       1.66      12.78
H       0.05      12.63      11.94
H      10.19       9.45       8.53
H      -4.30       4.18      13.51
H       6.83       7.50      10.75
H      -0.95       6.55      11.73
H       5.53       4.80      13.57
H       0.37       9.46       9.11
H       6.66       9.20       8.45
H       8.30       9.63       7.90
H       7.12      10.23      10.68
H       8.72      10.75      10.13
H       7.64      12.19       8.34
H       7.09      12.64       9.96
H       6.04      11.67       8.92
H      -0.79       4.10      13.27
H      -2.43       3.47      13.53
H      -1.32       6.13      14.61
H      -2.96       5.53      14.92
H      -1.99       3.52      16.13
H      -1.47       5.05      16.87
H      -0.35       4.16      15.84
C       3.56       9.69      11.80
C       2.28       4.66      11.31
C       3.65       7.32       8.89
C       2.23       7.06      13.95
C       0.13       5.54      19.90
C       5.74       8.85       2.93
C       0.94       7.90      20.25
C       4.91       6.50       2.58
C       0.50       7.81      21.66
C       5.34       6.58       1.17
C      -0.09       6.63      22.16
C       5.94       7.77       0.67
C      -0.28       5.50      21.32
C       6.14       8.89       1.50
C       0.68       8.91      22.50
C       5.17       5.49       0.33
C       6.72      10.05       0.99
C      -0.87       4.35      21.84
C       3.46       7.88       5.14
C       0.30       7.53      17.18
C       3.10       7.79       6.48
C       0.67       7.60      15.84
C       4.04       7.41       7.44
C       1.84       6.98      15.39
C       5.35       7.11       7.05
C       2.65       6.28      16.30
C       5.72       7.19       5.71
C       2.28       6.20      17.64
C       4.77       7.57       4.76
C       1.11       6.82      18.07
C       3.71      11.14      12.12
C       2.01       3.19      11.46
C       5.06      13.04      12.76
C       0.53       1.28      11.37
C       4.95      11.68      12.52
C       0.72       2.65      11.25
C       2.59      11.97      12.02
C       3.07       2.36      11.81
C       2.67      13.35      12.28
C       2.90       0.97      11.94
C       3.94      13.90      12.63
C       1.61       0.42      11.69
C       1.52      14.22      12.15
C       4.01       0.08      12.24
C       5.29       0.59      12.62
C       0.21      13.71      11.93
C       6.36      -0.23      12.83
C      -0.87      14.54      11.74
C      -1.78       9.19       9.12
C       7.67       4.79      13.27
C      -0.49       8.92       9.53
C       6.38       5.22      13.04
C      -1.25       7.28      10.99
C       7.14       6.74      11.45
C      -2.60       7.44      10.62
C       8.49       6.36      11.59
C      -2.89       8.47       9.66
C       8.78       5.36      12.58
C      -3.69       6.67      11.19
C       9.58       6.99      10.86
C       9.36       7.98       9.83
C      -3.47       5.57      12.12
C      10.40       8.69       9.27
C      10.11       4.96      12.78
C       7.68       9.42       8.79
C       7.69      10.56       9.80
C       7.08      11.83       9.22
C      -1.83       4.39      13.48
C      -1.92       5.22      14.75
C      -1.41       4.44      15.96
N       0.72       6.75      19.46
N       5.15       7.65       3.37
N      -0.24       8.00      10.48
N       6.14       6.20      12.16
N      -1.92      10.25       8.12
N       7.82       3.75      14.30
O       4.52       8.91      12.08
O       1.28       5.44      11.16
O       2.45       9.34      11.26
O       3.50       5.03      11.35
O       4.59       7.22       9.74
O       1.35       7.48      13.13
O       2.40       7.36       9.15
O       3.42       6.70      13.65
O      -0.03       4.60      19.13
O       5.90       9.79       3.70
O       1.47       8.89      19.77
O       4.38       5.50       3.06
O      -0.99      10.40       7.32
O      -2.95      10.96       8.15
O       6.87       2.96      14.44
O       8.86       3.72      14.98
O       8.09       8.16       9.41
O      -2.20       5.17      12.31
