122

Zr       5.66       3.66       5.49
Zr      18.57       1.47       8.21
Zr       3.99       0.55       5.36
Zr      20.23       4.58       8.33
Zr       5.65       1.56       8.33
Zr      18.58       3.57       5.36
H       6.75       1.05       5.77
H      20.23       2.51      10.26
H      17.64       0.90       5.59
H      20.29       5.80       5.77
H      10.35       1.46       8.70
H      18.33       6.09       1.39
H      14.22      -7.90      12.04
H       9.86      -5.64       8.67
H       6.15      -0.75       1.80
H       8.15       3.03       2.02
H      17.96       5.95      11.80
H      16.00       2.15      11.60
H       8.16       7.40       5.31
H      14.35      11.98       0.82
H       9.87      -6.86      12.88
C       8.37       2.71       7.03
C       3.88      -0.13      10.43
C      15.86       2.56       6.75
C      20.37       5.12       3.16
C       6.26       1.48       3.20
C      22.55       6.46       7.01
C      17.87       3.71      10.42
C       1.80      -1.40       6.80
C       6.16      -1.32       6.86
C       1.87       1.27       3.03
C      17.95       6.39       6.91
C      22.49       3.94      10.55
C      13.51       3.26       5.96
C      10.70       2.05       7.86
C      14.40       2.61       6.80
C       9.84       2.71       7.00
C      12.05       2.26       7.48
C      12.17       3.08       6.33
C       4.88      -1.39      12.44
C      19.36       6.29       1.12
C       3.84      -0.94      11.65
C      20.42       5.87       1.90
C      19.49      -2.20      13.63
C       4.45      -2.11      13.57
C       1.34      -0.39       1.13
C      23.08       5.64      12.38
C       1.19       0.81       1.81
C       6.78       4.42      11.73
C      15.80      -8.55      13.48
C       8.64      13.78       0.01
C       6.74      -3.68       5.99
C      17.33       8.70       7.83
C       6.85      -2.62       6.88
C      17.21       7.66       6.92
C       8.32      -4.52       7.49
C      15.72       9.52       6.32
C       6.90      -0.08       1.38
C       8.02       2.07       1.52
C       8.80       1.76       0.42
C       8.31      -8.68      13.37
C      17.22       5.27      12.24
C      16.11       3.11      12.10
C      15.36       3.41      13.22
C      15.83      13.86       0.25
C       7.07       1.14       1.99
C      17.05       4.05      11.61
C      16.56      -3.06       7.76
C       7.85       8.06       6.12
C       1.09      -2.68       6.85
C      23.32       7.72       7.02
C       8.36       9.35       6.39
C      16.05      -4.35       7.51
S      13.58       1.75       8.07
S      10.64       3.59       5.73
S      18.74      -1.41      12.29
S       5.53       6.31       1.27
S      16.44       1.83       1.06
S       7.99       3.39      12.45
S       7.99      -2.96       8.16
S      16.06       7.97       5.65
S       9.55      10.37       5.68
S      14.85      -5.36       8.22
O       7.80       3.39       6.11
O      19.19       0.17       9.93
O      16.43       1.85       7.66
O       5.05       4.86       3.71
O       5.42       0.61       3.62
O      21.66       6.30       7.91
O      18.72       4.57      10.01
O       2.65      -1.22       5.87
O       6.43      -0.51       7.81
O      17.98       2.41       3.50
O      17.72       5.58       5.95
O       6.36       2.79      10.10
O       2.73       0.47       3.54
O      18.79       6.21       7.86
O      21.58       4.71      10.10
O       5.35      -1.12       5.89
O       6.48       2.62       3.73
O      17.92      -0.55       7.70
O      17.68       2.56       9.90
O       6.39       5.65       6.07
O      19.22       4.81       3.62
O       7.79       2.02       7.94
O       5.02       0.24      10.00
O      16.45       3.20       5.81
O      20.29       4.89       6.08
O      18.41       1.38       5.94
O      20.27       2.52       9.29
O       5.94       1.48       6.08
O       3.93       0.86       7.41
O       5.31       3.44       7.52
O      18.83       3.37       7.41
O       3.94       2.60       5.05
O      14.81      11.66       0.02
O       9.71       2.69       0.00
F      13.87       4.00       4.89
F       6.18      -1.17      12.19
F      10.34      12.92       1.48
F      14.09      10.60       4.91
F      16.11      -2.30       8.77
