88

Zn       5.46       6.10       8.87
Zn       2.60       6.38       8.18
H       2.84       7.22       4.05
H       0.62       7.76      14.52
H       1.45       2.26       9.30
H       0.81      11.10      10.15
H       1.49      -0.17       9.89
H       6.48       9.84       6.73
H       6.36       0.30       6.16
H       6.25      12.05       5.54
H       2.76       9.66       9.71
H       5.31       7.10      13.00
H      -0.90       3.97      10.89
H       9.62       8.43       7.64
H       0.89       5.14       9.69
H       1.11       7.20      12.14
H       4.84       7.66      15.39
H       6.95       6.17       4.70
H       3.76       6.34      17.01
H       3.36       7.80       1.70
H       8.82       6.87       6.65
H       7.12       6.50       6.93
H       1.27       9.51      16.28
H       4.02       9.56       0.86
H       7.99       6.95       1.31
H       8.40       6.15       2.75
C       4.76       8.72       8.36
C       6.17       6.56       4.04
C       4.02       7.54      14.68
C       4.29       7.24      13.36
C       1.92       7.31      12.86
C       1.65       7.63      14.19
C       2.69       7.69      15.13
C       5.78       7.62       0.45
C       2.38       7.83      16.57
C       3.24       7.08      12.44
C       2.32       0.29       9.34
C       4.52       6.32       5.94
C       3.43       2.24       8.45
C       5.70      10.55       7.00
C       5.57      11.78       6.35
C       4.57      12.66       6.71
C       3.65      12.38       7.76
C       3.71      11.06       8.33
C       4.51       0.02       8.22
C       1.54      12.78       9.00
C       1.62      11.45       9.50
C       2.69      10.65       9.25
C       3.45       3.74       8.44
C       4.50       1.44       8.03
C       2.30       1.63       9.04
C       4.75      10.16       7.94
C       9.10       4.28      10.52
C       0.31       8.18       7.20
C      -1.01       8.72       7.14
C      -2.05       8.01       7.68
C      -1.81       6.78       8.34
C      -0.45       6.43       8.56
C       9.81       5.95       8.89
C       3.53       6.67      11.03
C      10.15       4.98       9.86
C      -1.15       4.72      10.14
C      -0.15       5.38       9.48
C       8.44       6.01       8.45
C       7.78       4.62      10.22
C       4.86       6.67       4.52
C       3.86       7.15       3.67
C       4.17       7.50       2.37
C       5.47       7.39       1.85
C       6.50       6.91       2.73
N       7.46       5.45       9.20
N       0.57       7.10       7.94
N       8.09       6.58       7.29
N       1.36       8.71      16.89
N       7.82       6.85       2.31
Cl       5.85       2.27       7.31
Cl       6.51       3.95      11.13
Cl       9.46       3.09      11.71
Cl       1.55       8.93       6.32
Cl      -1.30      10.25       6.41
O       5.88       8.15       8.57
O       3.63       8.14       8.40
O       5.49       6.06       6.74
O       3.30       6.32       6.26
O       4.52       4.30       8.82
O       2.37       4.34       8.12
O       4.76       6.57      10.71
O       2.53       6.45      10.26
