62

Al       5.11       9.29       8.35
Al       1.73       9.29       8.35
H       6.80       8.10       9.67
H       3.42      10.47       7.04
H       4.60      13.20       8.47
H       4.40      15.70       8.45
H       8.69      16.01       8.33
H       1.52       2.56       8.38
H       5.82       2.87       8.26
H       5.61       5.37       8.24
H       7.98       9.81      12.24
H       7.78      10.06      14.72
H       5.31       9.97      15.04
H       4.90       8.60       1.66
H       2.44       8.51       1.99
H       2.23       8.76       4.47
C       3.39       9.55      10.75
C       3.44       6.87       8.34
C       6.82       9.02       5.96
C       6.77      11.70       8.37
C       6.74      13.19       8.39
C       5.49      13.84       8.43
C       5.37      15.22       8.43
C       6.53      16.01       8.38
C       7.79      15.40       8.36
C       7.88      14.01       8.36
C       2.42       3.17       8.35
C       3.68       2.56       8.32
C       4.84       3.36       8.28
C       4.73       4.73       8.27
C       3.47       5.38       8.31
C       2.34       4.56       8.35
C       3.36       9.74      12.23
C       8.87       9.85      12.87
C       8.75       9.98      14.24
C       3.15      10.02      15.04
C       4.41       9.94      14.43
C       4.50       9.79      13.05
C       5.80       8.64       2.28
C       7.06       8.55       1.67
C       1.46       8.59       2.47
C       1.35       8.73       3.84
C       6.85       8.83       4.47
C       5.72       8.78       3.66
N       6.54      17.42       8.36
N       3.67       1.15       8.34
N       3.16      10.15      16.44
N       7.05       8.42       0.27
O       4.52       9.38      10.19
O       2.32       7.45       8.46
O       7.96       9.00       6.54
O       5.63      11.12       8.44
O       5.70       9.19       6.52
O       7.90      11.12       8.25
O       2.25       9.57      10.17
O       4.58       7.45       8.26
O       6.80       8.75       8.95
O       3.42       9.82       7.76
F       2.36      13.48       8.33
F       7.85       5.10       8.38
F       5.74       9.70      12.52
F       4.47       8.87       4.18
