129

Zn       6.02       7.95      11.83
Zn       8.83       7.90      11.80
H       8.41      11.22       1.25
H       5.28       0.98      11.59
H       6.48      14.79      13.72
H       8.24      14.82      13.83
H       6.37       1.10      13.66
H       8.13       1.13      13.78
H       1.11       9.92      12.67
H      13.56       9.84      12.96
H       8.56      11.01      22.42
H      13.50       8.02       9.84
H       1.17       7.60       9.90
H       5.26       7.99       7.63
H      13.69       9.58      10.64
H       1.37       9.30      10.35
H      13.47       5.99      13.02
H       1.14       6.16      13.32
H      13.65       5.91      11.26
H       1.33       5.78      11.61
H       6.34       4.65      22.41
H       6.20       4.86       1.24
H       9.08       6.42      18.56
H       5.79       9.17      16.06
H       9.54       7.99       7.55
H       5.82       9.22      18.57
H       5.20       8.03       5.12
H      11.96      10.13      14.44
H      10.89       9.65      16.62
H      11.66       7.71      17.98
H      13.47       6.23      17.11
H      14.55       6.72      14.97
H       2.72       7.08      14.26
H       3.70       7.17      16.49
H       3.16       9.05      18.04
H       9.50       7.99       5.04
H       1.65      10.89      17.26
H       0.66      10.80      15.00
H       6.39      14.77       9.94
H       8.83      14.80      10.11
H       9.66      14.75      11.66
H       5.36      14.71      11.38
H       9.51       1.02      11.89
C       7.45      10.52      11.88
C       7.02       6.64      20.79
C       8.37       7.04      18.02
C       7.40       7.86      14.41
C       8.37       7.03      16.61
C       7.43       7.82      15.91
C       6.52       8.59      16.63
C       6.53       8.61      18.02
C       7.46       7.83      18.71
C       6.15       8.02       5.66
C       6.18       8.00       7.05
C       8.10      10.34       0.68
C       7.40       7.99       7.73
C       8.60       8.00       7.01
C       8.58       8.00       5.62
C       7.40       5.34      11.79
C       7.35       8.02       4.95
C       6.29      15.13      10.97
C       8.79      15.16      11.14
C       8.74       0.68      11.18
C       6.15       0.65      11.00
C       7.37       3.90      11.78
C       8.25      10.12      22.98
C       7.49      14.63      11.81
C       7.39       1.23      11.75
C       7.29       0.71      13.21
C       7.39      15.19      13.24
C       7.37       2.68      11.75
C       7.50      13.18      11.84
C       7.42       7.98       9.23
C       7.48      11.97      11.87
C      13.94       8.83      13.20
C       0.89       8.93      13.11
C       7.87       8.99      22.27
C      13.98       8.53      10.69
C       0.88       8.36      10.64
C      13.45       7.93      12.02
C       1.39       7.91      12.04
C       0.86       6.48      12.31
C      13.95       6.47      12.16
C       2.84       7.91      11.96
C      12.00       7.93      11.98
C       6.90       6.85       2.86
C       7.74       9.22       2.87
C       7.46       7.83      22.96
C       7.72       9.20       1.38
C       7.31       8.04       0.68
C       6.90       6.87       1.38
C       5.94       1.20       9.66
C       9.11       1.24       9.88
C      13.33       8.47      14.54
C      12.30       9.28      15.03
C      11.70       9.01      16.26
C      12.12       7.92      17.02
C      13.14       7.09      16.53
C       7.05       6.66      22.27
C      13.74       7.36      15.30
C       1.59       8.92      14.46
C       2.46       7.92      14.90
C       3.02       7.97      16.18
C       2.73       9.02      17.04
C       1.88      10.05      16.60
C       1.33      10.00      15.32
C       9.32       6.17      15.97
C       6.65       5.53      22.97
C       6.51       5.74       0.68
C       7.89       9.01      20.79
N       7.33       8.03       3.51
N       7.46       7.83      20.15
N       3.99       7.93      11.82
N      10.85       7.92      11.89
N       5.71       1.60       8.59
N       9.48       1.64       8.85
N      10.11       5.41      15.58
O       6.32       9.98      11.63
O       8.09      10.20       3.51
O       8.26       9.98      20.13
O       6.65       5.68      20.13
O       8.55       9.92      12.14
O       6.29       8.18      13.87
O       8.49       7.58      13.81
O       6.30       5.92      12.09
O       8.51       5.89      11.51
O       6.32       7.75       9.82
O       8.54       8.20       9.80
O       6.54       5.87       3.51
