258

Zn       8.57       3.83       8.99
Zn       2.59      -2.90       7.37
Zn      -3.39      -0.93      14.00
Zn      -2.59       4.93       6.19
Zn       3.39      11.66       7.81
Zn       9.37       9.70       1.18
H       9.49       0.94       9.70
H       3.51      -0.83       9.51
H      -2.48      -0.11      11.14
H      -3.51       7.82       5.48
H       2.48       9.59       5.67
H       8.46       8.87       4.04
H      11.69      -0.14      10.33
H       5.71       0.25      10.13
H      -0.27      -0.12       9.89
H      -5.71       8.90       4.85
H       0.27       8.51       5.05
H       6.25       8.88       5.28
H      -4.19       1.26      10.28
H       7.77      -0.49       8.95
H       1.79      -0.77      11.12
H      10.17       7.51       4.90
H      -1.79       9.25       6.23
H       4.19       9.53       4.05
H      -4.36       3.69       9.66
H       7.60      -2.24       7.16
H       1.62      -1.44      13.54
H      10.35       5.08       5.52
H      -1.62      11.01       8.02
H       4.36      10.20       1.64
H      -4.28       7.77      10.17
H       1.70      13.68       3.36
H       7.68       4.84       1.65
H      10.26       0.99       5.01
H       4.28      -4.92      11.82
H      -1.70       3.93      13.53
H      -3.13       9.96      10.19
H       2.85      12.61       1.45
H       8.84       3.72       3.53
H       9.11      -1.20       4.99
H       3.13      -3.85      13.73
H      -2.85       5.05      11.65
H      -6.22      11.66       7.74
H      -0.23       9.64       1.21
H       5.75       4.99       6.23
H      12.20      -2.90       7.44
H       6.21      -0.88      13.97
H       0.23       3.77       8.95
H      -7.38       9.47       7.68
H      -1.40      10.68       3.14
H       4.58       6.15       4.36
H      13.36      -0.70       7.50
H       7.38      -1.91      12.03
H       1.40       2.62      10.82
H       7.91       6.19       7.23
H      -4.06      11.93       6.20
H       1.92       8.17       1.75
H      -1.92       2.57       7.95
H      10.04      -3.17       8.98
H       4.06       0.59      13.43
H       5.83       7.51       6.91
H      -6.13      11.00       5.22
H      -0.15       7.78       3.04
H       0.15       1.26       8.26
H      12.11      -2.23       9.96
H       6.13       0.98      12.13
H       7.20      10.40       9.78
H      -4.77      12.03       1.28
H       1.21       3.86       4.12
H      -1.21      -1.64       5.40
H      10.75      -3.27      13.90
H       4.77       4.91      11.06
H      -8.64       9.10      10.09
H      -2.66      12.95       2.25
H       3.32       4.23       2.84
H      14.63      -0.34       5.08
H       8.64      -4.19      12.93
H       2.66       4.53      12.34
H      -4.85       5.91       9.13
H       1.13      13.71       5.49
H       7.11       6.66       0.56
H      10.83       2.85       6.05
H       4.85      -4.95       9.68
H      -1.13       2.10      14.62
C      10.43       1.49       9.68
C       4.45      -1.12       9.04
C      -1.54      -0.37      11.63
C      -4.45       7.27       5.49
C       1.54       9.89       6.13
C       7.52       9.13       3.55
C      11.64       0.91      10.02
C       5.66      -0.53       9.38
C      -0.32      -0.37      10.95
C      -5.66       7.86       5.15
C       0.32       9.30       5.80
C       6.30       9.13       4.23
C      -5.15       1.69      10.01
C       6.81      -0.94       8.71
C       0.83      -0.75      11.64
C      11.13       7.07       5.17
C      -0.83       9.71       6.47
C       5.15       9.51       3.54
C      -5.24       3.04       9.66
C       6.72      -1.92       7.72
C       0.74      -1.12      12.98
C      11.22       5.73       5.52
C      -0.74      10.68       7.46
C       5.24       9.88       2.20
C      -6.50       3.56       9.35
C       5.46      -2.44       7.42
C      -0.52      -1.12      13.59
C      12.48       5.20       5.83
C       0.52      11.21       7.76
C       6.50       9.88       1.59
C      -6.77       4.96       9.08
C       5.20      -3.38       6.34
C      -0.78      -1.58      14.94
C      12.75       3.80       6.10
C       0.78      12.14       8.84
C       6.77      10.35       0.24
C       9.99       6.78       8.81
C      -1.97      13.00       4.90
C       4.01       6.50       1.47
C      -4.01       1.98       6.37
C       7.95      -4.24      10.28
C       1.97       2.26      13.71
C      -6.60       7.17       8.93
C      -0.62      12.91       4.50
C       5.36       6.21       1.74
C      12.59       1.59       6.25
C       6.60      -4.15      10.68
C       0.62       2.56      13.43
C      -5.93       8.46       8.93
C       0.05      12.27       3.38
C       6.03       5.56       2.86
C      11.91       0.30       6.24
C       5.93      -3.51      11.80
C      -0.05       3.21      12.31
C      -4.72       8.62       9.63
C       1.26      12.80       2.90
C       7.24       4.87       2.65
C      10.70       0.14       5.54
C       4.72      -4.03      12.28
C      -1.26       3.89      12.53
C      -4.07       9.85       9.65
C       1.91      12.20       1.83
C       7.90       4.24       3.70
C      10.05      -1.08       5.52
C       4.07      -3.44      13.35
C      -1.91       4.52      11.48
C      -4.60      10.95       8.98
C       1.38      11.07       1.20
C       7.36       4.27       4.99
C      10.58      -2.19       6.20
C       4.60      -2.30      13.98
C      -1.38       4.49      10.18
C      -5.81      10.80       8.28
C       0.17      10.53       1.69
C       6.15       4.96       5.22
C      11.79      -2.04       6.90
C       5.81      -1.77      13.49
C      -0.17       3.80       9.96
C      -6.46       9.57       8.25
C      -0.48      11.12       2.76
C       5.50       5.60       4.17
C      12.44      -0.81       6.93
C       6.46      -2.35      12.41
C       0.48       3.16      11.01
C      -3.84      12.25       8.95
C       2.14      10.39       0.10
C       8.12       3.65       6.13
C       9.82      -3.48       6.23
C       3.84      -1.63      15.08
C      -2.14       5.11       9.05
C       8.77       7.58       8.65
C      -3.19      12.47       4.29
C       2.79       6.25       2.24
C      -2.79       1.19       6.53
C       9.17      -3.70      10.89
C       3.19       2.52      12.94
C       7.77       7.12       7.78
C      -4.19      11.94       5.12
C       1.79       7.23       2.28
C      -1.79       1.64       7.40
C      10.17      -3.17      10.06
C       4.19       1.53      12.90
C       6.60       7.85       7.60
C      -5.36      11.42       4.58
C       0.62       7.02       3.00
C      -0.62       0.91       7.58
C      11.34      -2.65      10.60
C       5.36       1.75      12.18
C       6.40       9.05       8.30
C      -5.56      11.42       3.19
C       0.42       5.82       3.69
C      -0.42      -0.29       6.88
C      11.54      -2.66      11.99
C       5.56       2.95      11.49
C       7.37       9.49       9.21
C      -4.59      12.00       2.36
C       1.39       4.81       3.61
C      -1.39      -0.72       5.97
C      10.57      -3.23      12.82
C       4.59       3.96      11.57
C       8.55       8.76       9.38
C      -3.41      12.51       2.90
C       2.57       5.02       2.89
C      -2.57       0.00       5.80
C       9.40      -3.75      12.28
C       3.41       3.74      12.28
C       5.19       9.87       8.00
C      11.17      10.76       2.63
C      -0.79       5.66       4.55
C       0.79      -1.11       7.17
C      -5.19      -2.00      12.55
C       6.78       3.10      10.63
N      10.33       2.79       9.36
N       4.35      -2.05       8.09
N      -1.64      -0.73      12.91
N      -4.35       5.98       5.82
N       1.63      10.82       7.09
N       7.62       9.50       2.26
N       9.93       5.41       8.90
N      -2.03      13.76       6.04
N       3.95       7.11       0.24
N      -3.95       3.35       6.28
N       8.02      -5.00       9.14
N       2.03       1.65      14.94
N      -5.89       6.00       9.10
N       0.09      13.64       5.43
N       6.07       6.65       0.65
N      11.88       2.76       6.08
N       5.89      -4.88       9.74
N      -0.09       2.12      14.53
O       1.60      -4.34       8.26
O      -4.38       0.56      14.80
O       7.58       3.78       7.29
O       4.38      13.10       6.92
O      10.36       8.20       0.38
O      -1.60       4.99       7.89
O       3.25      -5.21       9.55
O      -2.73       2.11      14.92
O       9.23       3.10       5.89
O       2.73      13.98       5.63
O       8.71       6.65       0.26
O      -3.25       5.66       9.29
O       4.56       9.70       6.92
O      10.54       9.90       3.32
O      -1.42       6.69       4.94
O       1.42      -0.94       8.26
O      -4.56      -1.14      11.86
O       7.40       2.08      10.24
O       4.84      10.77       8.87
O      10.82      11.06       1.42
O      -1.15       4.46       4.89
O       1.15      -2.00       6.31
O      -4.84      -2.29      13.76
O       7.13       4.30      10.29
