42

Zn       6.75       4.51       5.16
Zn       3.96       4.71       5.49
H       6.82       4.94       9.57
H       2.77       4.00       1.46
H       1.47       2.73       0.03
H       2.85       4.56       9.94
H       3.53       3.06       9.30
H       6.66       4.21       1.31
H       3.54       8.55       4.24
H       2.53       0.30       5.81
H       3.02       1.21       4.35
H       7.38       0.69       5.13
H       2.20       3.22       7.44
H       8.42       3.15       6.79
H       1.88       2.30       5.96
H       8.30       6.63       4.59
C       5.60       7.21       5.06
C       5.54       0.43       5.04
C       4.96       4.37       2.75
C       5.57       1.94       5.17
C       5.53       4.57       7.90
C       4.96       4.30      10.35
C       5.82       4.61       9.34
C       3.57       4.00       0.72
C       4.80       4.17       1.28
C       5.55       8.69       4.95
C       3.57       3.75      10.15
C       3.02       0.22       4.82
C       1.58       3.19       6.53
N       1.92       4.38       5.76
N       8.87       5.01       5.31
O       6.68       6.56       4.80
O       4.52       6.65       5.42
O       6.17       4.32       3.17
O       3.93       4.58       3.46
O       6.77       2.43       5.15
O       4.51       2.60       5.31
O       6.56       4.66       7.14
O       4.33       4.49       7.47
O       5.98       4.15       0.60
O       7.93       8.92       5.07
O       9.21       6.16       4.69
