122

Zn       8.66       8.36       8.58
Zn       5.76       8.41       8.70
H       8.84       2.02       6.00
H       5.71      15.31       8.42
H       8.34      10.11       1.79
H       5.80       6.41      15.32
H       4.00      11.79       8.21
H       4.10      13.51       7.74
H       2.91      12.48      10.37
H       3.01      14.18       9.88
H       1.53      13.71       7.89
H       0.72      13.25       9.40
H       1.42      12.00       8.36
H      11.19       4.70       6.43
H      10.62       3.03       6.63
H      10.41       5.25       8.74
H       9.77       3.62       8.93
H      12.09       2.65       8.69
H      12.01       3.79      10.04
H      12.77       4.28       8.51
H       4.11       8.79      12.23
H       2.78      10.01      12.32
H       5.78      10.63      12.11
H       4.50      11.84      12.19
H       3.84      11.00      14.50
H       5.55      11.49      14.46
H       5.12       9.77      14.41
H       9.96       7.00       4.60
H      11.69       6.66       4.86
H      10.41       9.45       4.73
H      12.13       9.15       4.99
H      12.31       8.03       2.74
H      11.70       9.69       2.58
H      10.58       8.32       2.45
C       7.40       7.98      11.19
C       7.03       8.68       6.07
C       7.42       7.92      12.70
C       7.14       8.51       4.58
C       6.58       7.06      13.42
C       7.68       9.50       3.75
C       6.47       7.08      14.79
C       7.92       9.32       2.41
C       7.23       8.02      15.52
C       7.60       8.08       1.82
C       8.10       8.88      14.83
C       7.03       7.07       2.62
C       8.19       8.82      13.44
C       6.81       7.29       3.98
C       2.91       7.67       8.00
C      11.50       8.87       9.49
C       1.51       7.69       8.00
C      12.89       8.84       9.52
C       0.85       8.52       8.92
C      13.57       8.22       8.45
C       1.65       9.26       9.81
C      12.79       7.73       7.39
C       7.30      10.91       8.73
C       7.10       5.90       8.04
C       3.05       9.18       9.77
C      11.39       7.86       7.39
C       7.43      12.36       8.36
C       7.02       4.48       7.55
C       6.40      13.29       8.60
C       8.08       3.83       6.86
C       6.50      14.60       8.17
C       8.01       2.48       6.53
C       7.63      15.05       7.46
C       6.90       1.69       6.87
C       8.66      14.14       7.21
C       5.82       2.34       7.48
C       8.56      12.82       7.67
C       5.88       3.69       7.80
C       7.75      16.47       7.14
C       6.91       0.24       6.76
C       4.07      12.82       8.60
C       2.89      13.15       9.50
C       1.57      13.02       8.75
C      10.45       4.08       6.94
C      10.58       4.20       8.46
C      11.94       3.70       8.95
C       3.81       9.82      11.97
C       4.79      10.83      12.53
C       4.82      10.77      14.06
C      10.89       7.39       5.04
C      11.23       8.76       4.49
C      11.47       8.70       2.98
N       7.11       8.24      16.90
N       7.81       7.78       0.47
N       3.64       8.38       8.85
N      10.78       8.41       8.47
N      -0.53       8.81       8.95
N      14.94       7.93       8.42
O       8.48       7.76      10.58
O       5.90       8.46       6.59
O       6.27       8.29      10.70
O       8.12       8.98       6.65
O       8.34      10.30       9.12
O       6.03       6.41       8.50
O       6.15      10.40       8.57
O       8.23       6.47       7.99
O       5.30      12.93       9.35
O       9.18       4.55       6.45
O       3.86       9.93      10.51
O      10.56       7.41       6.46
F      10.85       9.41      10.51
F       3.53       6.92       7.10
F      13.54       9.30      10.60
F       0.86       6.96       7.09
F       1.07      10.10      10.69
F      13.41       7.12       6.36
F       4.79       4.18       8.43
F       9.59      11.99       7.36
F       5.56      16.72       6.40
F       9.13      -0.03       7.43
F       9.76      14.50       6.52
F       4.71       1.65       7.85
F       7.98      10.71       4.31
F       5.84       6.16      12.72
F       8.84       9.79      15.49
F       6.72       5.87       2.10
F       9.01       9.69      12.82
F       6.31       6.28       4.72
