106

Zn      10.50      14.90       0.56
Zn      25.37      14.95       0.73
Zn      17.98      10.72      13.12
Zn      18.17       1.58       0.58
Zn       7.42       6.12       6.83
Zn      10.66       6.19       6.92
Zn       9.12       3.39       6.88
Zn       8.94       5.23       9.49
C       8.92      12.91       2.06
C       8.95      11.67       2.92
C       8.40      10.47       2.47
C       8.44       9.33       3.27
C       9.03       9.36       4.54
C       9.04       8.13       5.42
C       9.58      10.56       4.99
C       9.54      11.70       4.19
C       2.38       9.21      12.91
C       3.39       8.56      12.01
C       4.15       9.31      11.11
C       5.10       8.70      10.29
C       5.32       7.32      10.35
C       6.38       6.68       9.51
C       4.55       6.57      11.25
C       3.60       7.18      12.06
C       2.63       1.16       1.96
C       3.67       1.78       2.86
C       3.32       2.22       4.13
C       4.26       2.83       4.96
C       5.57       3.01       4.54
C       6.59       3.67       5.43
C       5.93       2.57       3.26
C       4.99       1.96       2.43
C      15.43       9.24      13.16
C      14.38       8.56      12.32
C      14.73       7.48      11.51
C      13.79       6.89      10.67
C      12.47       7.36      10.62
C      11.46       6.73       9.70
C      12.13       8.43      11.45
C      13.07       9.02      12.29
C      15.69       1.28       2.12
C      14.67       1.95       3.01
C      13.90       3.00       2.53
C      12.95       3.62       3.34
C      12.76       3.21       4.66
C      11.69       3.83       5.52
C      13.55       2.16       5.14
C      14.49       1.54       4.33
C       9.18      -2.47      12.96
C       9.16      -1.25      12.09
C      10.18      -0.29      12.17
C      10.15       0.86      11.38
C       9.10       1.08      10.48
C       9.07       2.30       9.62
C       8.09       0.12      10.39
C       8.12      -1.03      11.18
O      -0.06      10.73      15.09
O       7.77      13.35       1.77
O      10.05      13.37       1.72
O      10.18       7.77       5.85
O       7.91       7.60       5.64
O       1.44       9.84      12.33
O       2.58       9.07      14.16
O       7.26       6.02      10.14
O       6.29       6.86       8.26
O       1.64       1.91       1.70
O       2.85      -0.02       1.56
O       7.62       2.98       5.68
O       6.31       4.84       5.82
O      16.41       9.73      12.52
O      15.23       9.26      14.42
O      10.42       6.27      10.26
O      11.75       6.74       8.47
O      16.60       2.04       1.66
O      15.54       0.04       1.93
O      10.78       3.03       5.90
O      11.81       5.06       5.77
O       9.28      -2.25      14.20
O       9.09      -3.59      12.36
O       9.07       2.10       8.37
O       9.04       3.41      10.23
O       9.04       5.24       7.53
F       7.86      10.39       1.24
F       7.93       8.18       2.79
F      10.12      10.65       6.22
F      10.05      12.86       4.67
F       4.00      10.65      11.06
F       5.84       9.47       9.48
F       4.70       5.23      11.31
F       2.86       6.41      12.89
F       2.06       2.03       4.59
F       3.88       3.21       6.20
F       7.18       2.76       2.80
F       5.36       1.58       1.19
F      15.98       6.98      11.54
F      14.16       5.83       9.92
F      10.87       8.93      11.41
F      12.70      10.08      13.04
F      14.02       3.41       1.24
F      12.19       4.61       2.82
F      13.41       1.75       6.42
F      15.25       0.55       4.85
F      11.22      -0.48      13.00
F      11.16       1.74      11.47
F       7.04       0.31       9.56
F       7.10      -1.91      11.09
