116

Al       6.84       9.70       8.32
Al       3.51       9.68       8.33
Al       2.39       0.03       0.05
Al       5.72       0.06       0.05
H       2.72       3.42       2.29
H       4.21      15.84      14.47
H       3.89       5.33       3.38
H       3.09      13.93      13.35
H       5.44       4.12       5.26
H       8.18      15.29      11.51
H       3.89       7.18       5.05
H       3.14      12.12      11.63
H       6.52       6.20       6.19
H       7.14      13.23      10.51
H       3.77       6.51      13.99
H       6.94      14.47       4.11
H       3.80       5.07      12.97
H       5.48      15.35       4.60
H       3.78       6.39      11.05
H       5.02      13.90       6.35
H       3.85       7.83      12.06
H       6.68      13.30       6.13
H       1.52       7.47      14.77
H       6.78      12.67       2.33
H       1.71       8.87      12.92
H       7.05      11.49       4.34
H       6.76       4.72      12.64
H       3.03      13.20       2.81
H       1.66       4.11      12.06
H       3.26      14.32       4.16
H       6.68       6.29      10.93
H       3.43      11.31       4.14
H       6.69       6.76      14.12
H       5.21      11.92       2.01
H       6.81       8.29      12.35
H       5.70      10.49       3.80
H       1.32       5.94       8.93
H       1.91      11.60       5.85
H       5.42       0.96       3.33
H       8.07      18.46      13.37
H       5.18       8.09       9.01
H       1.86      11.47       8.35
H       5.08       4.86      15.95
H       2.78      17.68      16.28
C       5.20      11.12       6.37
C       1.83       8.22      10.27
C       5.15      11.49       9.96
C       1.87       7.91       6.70
C       0.76       2.77       2.83
C       6.15      16.56      13.95
C       1.86       6.80       5.70
C       5.15      12.57      10.99
C       3.01       5.52       3.99
C       3.97      13.77      12.73
C       3.01       6.55       4.91
C       4.00      12.77      11.79
C       0.74       6.00       5.57
C       6.26      13.39      11.14
C       0.73       4.91       4.67
C       6.25      14.45      12.07
C       1.88       4.68       3.85
C       5.09      14.64      12.90
C       1.86       3.60       2.93
C       5.08      15.70      13.83
C       6.30       2.95       3.70
C       7.28      16.42      13.08
C       6.29       4.01       4.59
C       7.32      15.37      12.18
C       3.26       6.01      13.15
C       5.88      14.35       4.38
C       3.28       6.91      11.88
C       5.72      13.44       5.62
C       7.73       7.00      13.87
C       5.81      12.42       2.78
C       1.11       5.02      12.35
C       3.68      13.43       3.67
C       1.81       5.69      13.55
C       5.11      13.74       3.19
C       1.85       7.28      11.47
C       5.15      12.07       5.19
C       7.81       7.97      12.67
C       6.00      11.52       4.02
C       1.05       5.97      11.14
C       3.70      12.24       4.66
C       6.11      17.59      15.03
C       0.77       1.74       1.75
C       5.12      14.67       1.99
C       1.76       4.78      14.77
C       1.59       5.37       9.86
C       2.66      12.42       5.76
C       5.21       1.94       3.79
C       8.35      17.45      13.01
O       4.02      10.99       9.65
O       7.42       8.26       7.20
O       6.34      10.70       6.76
O       2.94       8.50       9.73
O       6.28      11.15       9.46
O       3.01       8.40       6.99
O       7.35       8.64       9.89
O       4.10      10.81       6.92
O       5.18       8.87       8.44
O       1.85      10.50       8.26
O       6.25      15.12       1.61
O       2.86       4.51      15.35
O       4.97      18.03      15.38
O       6.31       1.45       1.21
O       4.01      14.90       1.41
O       7.27       4.38      15.15
O       1.89       1.26       1.41
O       7.24      17.93      15.54
O       5.10       4.13      16.59
O       1.75      15.26       0.07
O       2.28       4.37       9.79
O       2.56      13.42       6.46
O       4.15       2.14       4.39
O       2.79      17.25      12.52
