56

Al       6.13       7.07       8.68
Al       9.46       7.07       8.68
H       4.47       8.23       7.33
H       7.80       5.91      10.03
H       6.53       7.34      12.70
H       6.51       7.43      15.20
H       8.97       8.21      12.64
H       3.30       5.92       4.72
H       5.74       6.79       4.66
H       5.75       6.71       2.16
H       5.84      11.18       9.22
H       9.83      11.00       7.64
H       7.45       0.74       7.61
H       6.42       2.96       8.13
H       2.43       3.14       9.72
H       4.81      13.39       9.75
C       7.76       9.47       8.45
C       7.85       6.57       6.32
C       4.51       4.67       8.91
C       4.41       7.57      11.04
C       4.43       7.75      12.52
C       5.61       7.56      13.25
C       5.60       7.60      14.63
C       4.40       7.85      15.34
C       9.90       8.10      14.58
C       9.89       8.05      13.19
C       4.36       7.81      16.75
C       7.91       6.33       0.61
C       7.86       6.29       2.02
C       2.37       6.04       2.78
C       2.38       6.09       4.16
C       7.84       6.38       4.84
C       6.66       6.58       4.11
C       6.67       6.54       2.72
C       6.74      11.70       8.88
C       9.00      11.61       7.98
C       9.07      12.98       7.97
C       5.47       1.03       8.44
C       5.53       2.44       8.47
C       3.27       2.53       9.38
C       3.19       1.16       9.38
C       6.80      13.11       8.91
C       7.82      10.95       8.43
C       4.44       3.18       8.92
O       6.62       8.93       8.66
O       8.98       6.46       6.91
O       3.42       5.30       9.10
O       5.52       7.27      10.49
O       5.64       5.21       8.70
O       3.29       7.67      10.45
O       8.85       8.83       8.25
O       6.74       6.87       6.87
O       4.47       7.54       8.00
O       7.80       6.60       9.35
F       8.74       8.37      15.24
F       3.53       5.77       2.12
