198

Zr      16.01      16.17       6.74
Zr      12.49      12.62       6.75
Zr      14.25      14.39       4.24
Zr      14.25      14.39       9.25
Zr      12.47      16.15       6.74
Zr      16.03      12.63       6.74
H      14.25      17.17       4.77
H      11.47      14.37       8.72
H      14.26      11.60       4.77
H      17.04      14.41       8.71
H      12.16       5.74       6.68
H      16.34      23.04       6.69
H      12.09      20.48       6.88
H      12.01      22.93       6.88
H      16.40       8.30       6.88
H      16.49       5.85       6.88
H       5.62      12.22       6.80
H      22.88      16.56       6.82
H      20.36      12.29       6.61
H      22.81      12.23       6.61
H       8.14      16.49       6.61
H       5.69      16.55       6.61
H      19.62       8.93       2.20
H       8.79      19.75      11.29
H      12.37      16.56      12.56
H       1.60       8.11       0.83
H      16.31      12.40       0.93
H      27.07      20.84      12.65
H       8.84      19.80       2.19
H      19.75       9.07      11.29
H      16.25      12.34      12.56
H       7.92       1.51       0.83
H      12.06      16.25       0.93
H      20.40      27.09      12.66
H      10.21      10.21       9.56
H       8.48       8.51      10.21
H      12.36      12.39      12.58
H      18.39      18.47       3.92
H      20.08      20.21       3.28
H      16.23      16.30       0.90
H      20.62      20.73      12.60
H       7.97       7.96       0.89
H      18.25      18.61       9.57
H      19.51      19.88      11.25
H      10.07      10.35       3.91
H       8.81       9.08       2.23
C      14.23      18.87       6.81
C       9.77      14.37       6.68
C      14.27       9.91       6.81
C      18.73      14.41       6.68
C      16.52      16.58       3.56
C      16.43      16.68       9.93
C      12.08      12.10       9.92
C      11.98      12.19       3.56
C      11.93      16.58       3.58
C      16.55      12.18       3.58
C      16.48      12.11       9.90
C      12.04      16.69       9.91
C      14.27       8.42       6.80
C      14.23      20.36       6.81
C      13.09       7.65       6.74
C      13.11       6.27       6.73
C      15.41      21.13       6.75
C      15.39      22.51       6.74
C      13.02      21.06       6.85
C      12.98      22.45       6.84
C      15.48       7.72       6.84
C      15.51       6.33       6.84
C      14.33       5.57       6.79
C      14.17      23.21       6.79
C       8.28      14.35       6.68
C      20.22      14.43       6.69
C       7.52      13.17       6.74
C       6.14      13.18       6.75
C      20.98      15.61       6.75
C      22.36      15.61       6.76
C      20.93      13.22       6.65
C      22.32      13.20       6.66
C       7.57      15.56       6.65
C       6.18      15.58       6.65
C       5.43      14.39       6.70
C      23.07      14.39       6.71
C      17.29      11.40       2.55
C      11.28      17.45      10.94
C      18.23      10.40       2.86
C      18.91       9.69       1.88
C      10.27      18.37      10.63
C       9.57      19.06      11.61
C      11.57      17.26      12.30
C      10.88      17.95      13.29
C      17.05      11.65       1.19
C      17.73      10.95       0.20
C      18.68       9.96       0.52
C       9.86      18.86      12.97
C      11.16      17.33       2.55
C      17.27      11.38      10.94
C      10.23      18.33       2.86
C       9.53      19.03       1.88
C      18.27      10.45      10.63
C      18.98       9.77      11.60
C      17.02      11.61      12.30
C      17.72      10.94      13.29
C      11.35      17.04       1.19
C      10.66      17.72       0.20
C       9.73      18.73       0.52
C      18.72      10.00      12.97
C      10.39      10.40      10.62
C       9.68       9.70      11.60
C       8.70       8.72      11.26
C      11.62      11.64      12.33
C      10.92      10.96      13.33
C       1.58       1.54       1.24
C      18.20      18.29       2.87
C      18.90      19.00       1.88
C      19.87      20.00       2.23
C      16.97      17.05       1.16
C      17.65      17.75       0.15
C      26.98      27.18      12.25
C      11.35      11.36      10.98
C       9.95       9.97      12.98
C      17.25      17.32       2.50
C      18.63      18.74       0.50
C      11.25      11.44       2.49
C      17.17      17.42      10.99
C      11.50      11.61       1.12
C      10.81      10.90       0.15
C      17.01      17.17      12.36
C      17.71      17.87      13.33
C      18.10      18.41      10.63
C      18.81      19.11      11.60
C      10.27      10.50       2.85
C       9.57       9.79       1.89
C       9.82       9.97       0.52
C      18.63      18.86      12.97
N      11.74       8.26       6.66
N      16.76      20.52       6.69
N       8.15      11.83       6.80
N      20.35      16.96       6.83
N      18.55      10.01       4.25
N       9.85      18.67       9.24
N       9.93      18.75       4.25
N      18.66      10.13       9.23
N      12.52      12.55       0.61
N      16.07      16.14      12.88
O      15.37      18.29       6.81
O      10.36      13.24       6.68
O      13.13      10.49       6.80
O      18.14      15.55       6.69
O      15.65      15.72       3.18
O      15.58      15.81      10.32
O      12.93      12.98      10.30
O      12.84      13.05       3.17
O      11.66      16.86       4.80
O      16.83      11.92       4.80
O      16.75      11.84       8.69
O      11.76      16.95       8.69
O      15.70      13.03       3.17
O      15.63      12.96      10.31
O      12.88      15.83      10.31
O      12.80      15.75       3.17
O      16.79      16.86       4.78
O      11.70      11.90       4.77
O      11.80      11.83       8.71
O      16.72      16.96       8.72
O      18.17      13.27       6.69
O      13.10      18.30       6.80
O      10.33      15.51       6.69
O      15.40      10.49       6.80
O      16.25      14.40       8.16
O      14.26      12.40       5.33
O      12.26      14.39       8.15
O      14.23      16.39       5.33
O      12.78      14.39       5.70
O      14.24      15.86       7.78
O      14.26      12.93       7.78
O      15.71      14.40       5.71
O      11.31       8.52       5.53
O      11.12       8.39       7.72
O      17.21      20.29       5.57
O      17.35      20.38       7.77
O       8.39      11.37       7.92
O       8.29      11.23       5.72
O      20.09      17.38       7.96
O      20.23      17.58       5.77
O      17.86       9.12       4.76
O      19.54      10.55       4.76
O       8.96      17.96       8.76
O      10.37      19.66       8.70
O      10.63      19.65       4.73
O       8.95      18.22       4.79
O      19.55      10.83       8.73
O      18.14       9.13       8.72
O      13.66      12.11       0.46
O      12.13      13.68       0.28
O      16.53      15.00      13.03
O      14.94      16.52      13.20
F      26.04      26.24      11.92
F       2.51       2.49       1.57
