54

Al       3.55       4.92       7.41
Al       0.25       4.98       7.43
H      -1.44       6.48       8.30
H       1.81       3.45       6.46
H      -0.10       3.87      11.48
H       0.03       3.58      13.93
H       0.53       6.07       3.36
H       0.46       6.18       0.90
H       3.44       3.85       3.39
H       3.43       3.80       0.93
H      -2.56       5.05      11.37
H      -2.39       4.74      13.81
H       0.06       7.90       5.72
H       3.44       2.22       5.68
C       2.00       7.34       7.32
C       1.85       4.75       9.81
C      -1.43       2.54       7.51
C      -1.31       5.00       5.02
C       1.95       4.50      11.28
C      -1.31       4.98       3.53
C       0.83       4.06      12.01
C       0.92       3.89      13.38
C      -0.28       5.60       2.81
C      -0.32       5.63       1.43
C       4.23       4.34       2.83
C       4.23       4.34       1.44
C      -3.43       4.73      11.95
C      -3.34       4.55      13.32
C       2.12       4.15      14.08
C      -1.36       5.01       0.70
C       2.05       8.85       7.36
C       1.14       9.60       6.55
C      -3.63       9.50       8.19
C       0.16       8.99       5.74
C      -0.72       9.74       4.99
C      -1.43       1.04       7.44
C      -0.59       0.28       8.24
C       4.21       0.40       6.58
C       3.34       1.14       5.73
C       2.37       0.52       4.98
Br       0.58       1.14       9.45
Br      -2.54       8.51       9.39
Br      -2.07       8.85       3.99
Br       1.20       1.61       3.96
O       3.07       6.75       7.01
O       0.71       4.63       9.26
O      -0.35       3.15       7.22
O      -2.39       4.65       5.61
O      -2.54       3.09       7.80
O      -0.22       5.34       5.59
O       0.89       6.79       7.60
O       2.92       5.08       9.21
O      -1.40       5.56       7.99
O       1.89       4.34       6.84
