58

Al       6.03       6.46       8.41
Al       2.71       6.41       8.44
H       4.32       7.98       7.61
H       7.66       5.71      10.01
H       9.31       5.50      12.52
H       9.28       5.57      15.03
H       5.99       8.25      14.95
H       5.95       4.98       1.88
H       3.14       6.91       1.93
H       3.04       6.97       4.44
H       5.65      10.78       9.10
H       7.23       7.78      11.97
H       6.73       9.21      12.89
H       5.97       8.82      11.33
H       4.93       5.59       5.16
H       5.79       4.06       5.22
H       4.78       4.44       3.81
H       7.54       1.63       7.47
H       6.89       3.23       7.58
C       7.66       8.87       8.44
C       7.76       6.21       6.04
C       4.43       4.03       8.34
C       4.33       6.65      10.85
C       4.37       6.79      12.33
C       3.39       6.09      13.07
C      10.02       6.13      14.45
C       4.32       6.92      15.12
C       5.28       7.64      14.39
C       5.33       7.58      12.99
C       6.75       5.44       2.46
C       7.85       5.96       1.77
C       2.28       6.52       2.48
C       2.22       6.56       3.86
C       7.74       6.07       4.55
C       6.66       5.49       3.86
C       5.54       1.77       7.95
C       6.61      11.16       8.76
C       4.46       2.59       8.32
C       7.66      10.34       8.42
C       6.96      12.52       8.61
C       5.19       0.40       8.13
C       6.37       8.39      12.26
C       5.47       4.87       4.55
S       3.06       1.70       8.86
S       9.08      11.20       7.91
N       4.40       7.06      16.53
N       7.78       5.84       0.36
N       6.72       2.23       7.44
O       6.52       8.32       8.64
O       8.87       6.05       6.63
O       3.32       4.61       8.61
O       5.44       6.43      10.26
O       5.54       4.65       8.11
O       3.19       6.72      10.29
O       8.77       8.27       8.25
O       6.66       6.51       6.62
O       4.36       7.04       7.85
O       7.68       5.89       9.05
