128

Zn       7.03       6.31      36.72
Zn       6.34       6.36       1.53
Zn       6.75       6.31      20.65
Zn       6.68       6.36      17.60
C       6.32       3.80       0.54
C       9.59       6.33      37.69
C       6.35       8.88       0.43
C       4.51       6.30      37.83
C       6.69       3.80      18.58
C       4.19       6.33      19.69
C       6.67       8.88      18.69
C       9.27       6.29      19.54
C       7.16       7.36      23.67
C       7.17       7.40      25.08
C       6.54       5.13      23.67
C       6.58       5.07      25.07
C       6.88       6.23      25.79
C       6.89       6.23      27.28
C       5.68       6.24      27.99
C       8.10       6.21      27.98
C       7.24       5.13      33.71
C       7.20       5.07      32.31
C       6.62       7.36      33.71
C       6.62       7.41      32.30
C       6.90       6.23      31.58
C       6.90       6.23      30.10
C       8.11       6.24      29.39
C       5.68       6.22      29.39
C       7.68       6.68      14.56
C       7.71       6.65      13.15
C       5.45       6.07      14.60
C       5.37       6.08      13.20
C       6.53       6.36      12.46
C       6.51       6.36      10.97
C       6.53       5.14      10.26
C       6.50       7.57      10.26
C       5.34       6.67       4.56
C       5.31       6.65       5.97
C       7.57       6.07       4.52
C       7.65       6.08       5.93
C       6.49       6.36       6.67
C       6.51       6.36       8.15
C       6.52       7.57       8.86
C       6.50       5.14       8.86
C       7.13      11.26      37.67
C       6.37       1.44       1.63
C       6.38      10.35       0.47
C       6.34       2.33       0.57
C       6.38       0.08       1.23
C       7.14      12.61      38.08
C      11.96       6.29      36.61
C       1.37       6.29       0.59
C      11.06       6.31      37.67
C       3.04       6.28      37.80
C       0.02       6.29       0.17
C      13.31       6.28      37.02
C       6.66      11.26      19.71
C       6.64       1.44      17.49
C       6.65      10.36      18.66
C       6.67       2.33      18.55
C       6.63       0.09      17.89
C       6.66      12.61      19.29
C       1.83       6.28      20.77
C      11.65       6.29      18.53
C       2.72       6.31      19.71
C      10.75       6.28      19.58
C      13.00       6.29      18.95
C       0.47       6.27      20.35
S       6.40      11.17       2.01
S       7.09       1.51      37.29
S      11.12       6.33       0.95
S       2.23       6.26      36.25
S       6.63      11.17      17.12
S       6.68       1.51      20.09
S       1.90       6.33      18.17
S      11.56       6.26      21.12
N       6.84       6.25      23.00
N       6.95       6.25      34.38
N       6.58       6.38      15.25
N       6.44       6.37       3.87
Cl       6.11       3.76      22.75
Cl       6.26       3.60      25.89
Cl       7.57       8.73      22.76
Cl       7.51       8.86      25.91
Cl       4.19       6.30      27.13
Cl       4.20       6.16      30.26
Cl       9.58       6.15      27.12
Cl       9.59       6.30      30.25
Cl       6.28       8.86      31.47
Cl       6.22       8.74      34.61
Cl       7.52       3.60      31.48
Cl       7.67       3.76      34.62
Cl       4.09       5.66      15.54
Cl       3.90       5.75      12.40
Cl       9.08       7.08      15.45
Cl       9.17       6.97      12.30
Cl       6.58       3.66      11.13
Cl       6.44       3.66       8.00
Cl       6.44       9.05      11.13
Cl       6.58       9.05       8.00
Cl       9.13       5.75       6.73
Cl       8.93       5.66       3.59
Cl       3.86       6.96       6.82
Cl       3.94       7.07       3.68
O       7.06       4.35      37.65
O       6.34       4.40       1.68
O       8.29       6.35       0.59
O       8.99       6.31      36.56
O       6.37       8.31       1.59
O       7.07       8.30      37.56
O       5.07       6.28      36.67
O       4.33       6.32       0.70
O       6.73       4.35      19.73
O       6.68       4.41      17.45
O       4.74       6.35      18.54
O       4.80       6.31      20.82
O       6.65       8.32      17.53
O       6.71       8.30      19.81
O       8.71       6.27      20.70
O       8.69       6.33      18.42
F       7.13      10.93      36.36
F       6.39       1.80       2.93
F      11.60       6.27      35.31
F       1.70       6.30       1.90
F       6.66      10.92      21.01
F       6.62       1.80      16.19
F       2.18       6.27      22.06
F      11.32       6.30      17.23
