60

Al       6.30       6.48       8.58
Al       2.89       6.48       8.59
H       4.61       5.12       9.74
H       7.98       7.85       7.43
H       6.64      10.64       9.08
H       5.97       2.33       8.11
H       5.94       6.16      12.51
H       5.74       6.51      14.98
H       9.87       7.90      12.58
H       2.67       5.09       4.63
H       6.60       6.82       4.61
H       6.74       6.49       2.13
H      10.81       8.79      14.59
H       9.60       9.46      15.72
H      10.35       7.90      16.07
H       2.09       5.12       1.16
H       2.84       3.56       1.46
H       1.67       4.22       2.64
C       8.04       6.75      10.95
C       7.95       4.10       8.51
C       4.54       6.22       6.22
C       4.65       8.87       8.67
C       8.04       2.60       8.50
C       4.56      10.36       8.68
C       2.43       1.93       8.76
C      10.17      11.04       8.43
C       5.70      11.15       8.86
C       6.90       1.82       8.33
C       7.92       7.00      12.41
C       6.75       6.62      13.08
C       6.64       6.82      14.44
C       7.69       7.43      15.17
C       8.87       7.85      14.49
C       8.97       7.61      13.12
C       7.56       7.62      16.56
C       4.89       5.39       0.59
C       4.79       5.57       1.99
C       3.62       5.15       2.69
C       3.56       5.38       4.06
C       4.62       5.98       4.76
C       5.78       6.37       4.06
C       5.85       6.18       2.69
C       9.97       8.53      15.25
C       2.49       4.48       1.96
N       3.70       2.68       8.79
N       8.90      10.29       8.40
O       6.97       6.38      10.35
O       9.02       4.71       8.78
O       3.40       6.09       6.78
O       5.79       8.34       8.87
O       5.62       6.57       6.81
O       3.57       8.26       8.40
O       9.18       6.88      10.40
O       6.81       4.62       8.28
O       4.60       5.92       9.19
O       8.00       7.05       7.98
O       4.16       2.98       7.68
O       4.24       2.88       9.88
O       8.35      10.09       7.31
O       8.44       9.99       9.51
