219

Cu       1.55       4.83       8.36
Cu      -1.55       9.66       0.00
Cu       4.65      14.48       8.36
H      -2.92       3.40      10.78
H       0.18      -1.38      14.28
H       3.28      -2.02       8.39
H       6.02       6.25       5.94
H       2.92      11.04       2.44
H      -0.18      11.68       8.34
H      -1.97       1.14       9.65
H       1.13       0.73      12.89
H       4.23      -1.87      10.91
H       5.07       8.52       7.07
H       1.97       8.93       3.84
H      -1.13      11.53       5.81
H       2.25      -0.14       6.76
H      -3.96       3.87      13.23
H      -0.85      -3.73      13.46
H       0.85       9.80       9.96
H       7.06       5.78       3.50
H       3.96      13.39       3.26
H       4.42       1.16       5.85
H      -1.79       4.01      14.81
H       1.31      -5.18      12.80
H      -1.31       8.49      10.88
H       4.89       5.64       1.91
H       1.79      14.83       3.93
H       7.25      -2.05       6.71
H       1.04       4.87      11.59
H       4.14      -2.82      15.15
H      -4.14      11.71      10.01
H       2.06       4.78       5.13
H      -1.04      12.47       1.58
H      -1.53       0.40       6.72
H       1.58       3.64      13.71
H       4.68      -4.04      13.02
H       4.63       9.26      10.00
H       1.53       6.02       3.01
H      -1.57      13.69       3.71
H       1.52      -0.44       9.65
H       4.63       1.51      11.51
H      -1.58      -1.08      12.28
H       1.58      10.10       7.07
H      -1.52       8.14       5.21
H       4.68      10.73       4.44
H       0.86      -2.86       9.53
H       3.96       2.84       9.48
H      -2.25       0.02      14.44
H       2.25      12.52       7.20
H      -0.85       6.82       7.24
H       5.35       9.63       2.29
H      -3.35       7.15      14.14
H      -0.24      -6.17      15.84
H       2.86      -0.98       3.46
H       6.46       2.51       2.58
H       3.35      15.82       0.88
H       0.25      10.63      13.26
H      -1.32       6.52      12.83
H       1.79      -4.72      15.96
H       4.89      -1.80       4.66
H       4.42       3.13       3.90
H       1.32      14.37       0.77
H      -1.79      11.46      12.06
H       5.38       5.70       9.48
H       2.29       8.25       0.20
H      -0.82      15.02       7.04
H      -2.28       3.95       7.24
H       0.82       1.41      16.53
H       3.92      -5.37       9.68
H       3.48       6.41      10.91
H       0.38       6.66       0.10
H      -2.73      15.90       5.72
H      -0.37       3.25       5.82
H       2.73       3.00      16.63
H       5.83      -6.25      11.01
C      -1.15       4.36       9.76
C       1.95      -0.98      15.62
C       5.06      -3.38       8.07
C       4.25       5.30       6.96
C       1.15      10.64       1.11
C      -1.95      13.04       8.66
C      -2.05       3.29      10.14
C       1.05      -0.78      14.50
C       4.15      -2.52       8.80
C       5.15       6.37       6.58
C       2.05      10.43       2.22
C      -1.05      12.17       7.92
C      -1.56       2.15       9.58
C       1.54       0.29      13.79
C       4.64      -2.44      10.08
C       4.67       7.51       7.14
C       1.57       9.37       2.93
C      -1.53      12.09       6.65
C      -0.37       2.51       8.86
C       2.74       0.73      14.47
C       5.84      -3.25      10.12
C       3.47       7.14       7.87
C       0.37       8.93       2.25
C      -2.73      12.90       6.60
C       0.46       1.60       8.19
C       3.56       1.76      14.01
C       6.66      -3.36      11.25
C       2.64       8.06       8.53
C      -0.46       7.89       2.71
C      -3.56      13.02       5.48
C       1.67       1.89       7.55
C       4.77       2.17      14.59
C      -1.44      -4.07      11.31
C       1.44       7.76       9.17
C      -1.66       7.49       2.13
C       4.54      13.72       5.42
C       2.49       0.91       6.87
C      -3.72       3.25      14.08
C      -0.62      -4.16      12.50
C       0.62       8.74       9.85
C       6.82       6.41       2.64
C       3.72      13.82       4.23
C       3.58       1.58       6.40
C      -2.63       3.33      14.89
C       0.48      -4.91      12.16
C      -0.48       8.08      10.33
C       5.73       6.33       1.83
C       2.63      14.56       4.56
C       3.43       2.97       6.77
C      -2.78       2.31      15.91
C       0.32      -5.28      10.77
C      -0.32       6.69       9.95
C       5.89       7.35       0.82
C       2.78      14.93       5.96
C      -1.27       5.69      10.21
C       1.84      -2.04      16.54
C       4.94      -3.65       6.69
C       4.37       3.97       6.51
C       1.26      11.69       0.18
C      -1.84      13.31      10.03
C      -1.27      -1.65       7.36
C       1.83       4.11      11.61
C       4.93      -2.46      14.48
C       4.38      11.31       9.37
C       1.27       5.54       5.11
C      -1.83      12.12       2.25
C      -0.98      -0.29       7.37
C       2.12       3.42      12.79
C       5.22      -3.13      13.29
C       4.09       9.95       9.36
C       0.98       6.23       3.93
C      -2.12      12.79       3.43
C       0.05       0.17       8.19
C       3.15       2.48      12.77
C       6.25      -2.65      12.48
C       3.06       9.49       8.53
C      -0.05       7.18       3.95
C      -3.15      12.31       4.24
C       0.72      -0.77       8.99
C       3.82       2.25      11.57
C      -2.38      -1.49      12.89
C       2.38      10.42       7.73
C      -0.72       7.41       5.16
C       5.49      11.15       3.83
C       0.35      -2.11       8.92
C       3.45       2.98      10.44
C      -2.75      -0.88      14.09
C       2.75      11.76       7.81
C      -0.35       6.67       6.28
C       5.85      10.54       2.64
C      -3.44       6.83      13.10
C      -0.34      -5.11      16.09
C       2.77      -1.73       4.26
C       6.55       2.82       3.63
C       3.44      14.76       0.63
C       0.34      11.38      12.47
C      -2.31       6.48      12.37
C       0.80      -4.30      16.15
C       3.90      -2.18       4.93
C       5.41       3.18       4.36
C       2.30      13.95       0.58
C      -0.80      11.83      11.79
C      -2.45       6.06      11.04
C       0.66      -2.93      16.45
C       3.76      -3.12       5.96
C       5.55       3.60       5.69
C       2.45      12.59       0.28
C      -0.65      12.78      10.76
C      -3.75       6.02      10.51
C      -0.64      -2.46      16.68
C       2.46      -3.56       6.26
C       6.85       3.64       6.21
C       3.74      12.12       0.05
C       0.64      13.21      10.47
C       4.49       6.42      11.32
C      -1.71      -3.36      16.62
C       1.39      -3.06       5.51
C      -1.39       3.24       5.41
C       4.81      13.01       0.10
C       1.71      12.72      11.22
N       2.25       3.14       7.47
N      -3.96       1.62      15.71
N      -0.86      -4.76      10.27
N       0.86       6.52       9.26
N       7.06       8.04       1.02
N       3.96      14.42       6.45
N      -0.14       3.86       8.97
N       2.96      -0.05      15.58
N       6.07      -3.82       8.89
N       3.24       5.79       7.75
N       0.14       9.70       1.14
N      -2.96      13.47       7.83
N      -0.62      -2.55       8.11
N       2.48       3.91      10.46
N      -3.72      -1.36      14.88
N       3.72      12.20       8.62
N       0.62       5.75       6.26
N       6.83      11.02       1.85
N       4.62       6.82      12.59
N      -1.58      -4.66      16.33
N       1.52      -2.16       4.53
N      -1.52       2.84       4.13
N       4.68      14.32       0.39
N       1.58      11.81      12.20
