175

Zn       8.24      11.88       9.33
Zn      -1.79      -2.77       9.27
Zn      -9.13      13.14      11.21
Zn       8.52      14.91       6.95
H      -7.37      10.11      10.80
H       0.10      12.99       5.25
H      -6.35       4.22       9.98
H      -4.75       6.53       9.54
H      -5.25       6.13       5.58
H      -0.94      -2.36      15.93
H      -1.63      -1.17      17.99
H       4.41       8.34       3.20
H       5.89       9.45       4.86
H      -4.05       1.51      15.64
H       4.78      13.28       3.18
H       9.84      15.89       4.46
H       9.92      17.39       2.85
H      10.64      -6.56      15.69
H      13.09      -3.29       7.79
H      11.86      -6.27      13.53
H      -5.70      -5.65      17.87
H      -4.47      -5.37      15.75
H      -3.39      -4.98      13.83
H      -3.94      12.81      10.68
H      -4.51      11.36       9.82
H      -4.99      10.24      12.03
H      -0.82      -0.20       7.25
H      -3.29      10.75      11.93
H      -4.45      11.71      12.89
H       6.37      -1.92       9.21
H       6.17      -1.59       7.47
H       8.17      -0.07       7.53
H       6.95       0.46       8.71
H       8.39      -0.42       9.27
H      11.12       3.62       9.27
H      10.96       3.37       7.50
H       8.87       4.76       7.48
H      10.06      10.30       7.26
H       8.70       3.40       8.62
H       9.03       5.04       9.24
H      -2.42       1.83       6.75
H      -1.74       3.28       5.97
H      -0.49       1.82       8.39
H       0.20       3.25       7.57
H      -1.36       3.37       8.43
H      -2.26       4.37       3.17
H      -0.81       4.68       2.18
H       0.33       5.72       4.19
H       6.30      14.31       4.62
H      -1.16       6.59       3.75
H      -1.15       5.48       5.15
H       0.39      12.14       9.15
H       6.15      -4.50       9.77
H      -1.41      11.41       7.06
H      -3.52      -0.33      10.38
C       6.88      12.39      12.02
C      10.53      10.40       8.23
C       6.91      13.46       4.91
C      -3.92      -0.74       9.47
C      -6.45      13.20       9.84
C       6.63      12.08       4.78
C      -5.84      13.72       8.67
C      -8.25       9.79       8.75
C      -1.69      -1.13       5.39
C      -0.95      14.06       8.77
C      -0.07      12.82       8.43
C      -4.58      -0.04       8.43
C       3.41      13.62       7.64
C      -4.52      13.66       8.20
C      -0.12      14.94       7.76
C      -1.54      -3.28      13.32
C       0.79      13.69       7.42
C      -1.10      14.51       6.60
C      -1.96      13.65       7.61
C      -0.21      13.28       6.26
C      -1.03      12.41       7.27
C       2.21      13.68       7.44
C      -1.75      -1.90      13.41
C      -3.36      13.65       7.83
C      -5.23       5.92       8.77
C      -6.13       4.67       9.01
C      -4.83       1.33       8.26
C       5.78      14.50       7.94
C      -7.46       8.76       8.19
C      -4.50       5.17       7.61
C      -5.38       3.87       7.86
C      -5.51       5.72       6.56
C      -6.27       6.49       7.72
C       4.78      13.50       7.89
C      13.53       4.46       6.80
C      12.75       5.20       7.96
C      -5.02       2.51       8.02
C      -6.82       7.79       7.82
C       5.54      11.44       4.09
C      -1.63      -1.56      12.05
C       4.71      12.20       3.23
C       3.86      11.56       2.34
C       3.82      10.15       2.23
C       4.48       9.43       3.25
C       7.79      11.52       5.39
C       5.33      10.05       4.16
C      -2.03      -0.88      17.02
C      -1.64      -1.53      15.86
C      -2.90       0.23      16.96
C      -2.11      -1.13      14.59
C      -3.00      -0.04      14.57
C       5.52      12.33       8.13
C      -3.38       0.65      15.71
C      13.76      -5.83      14.48
C      -5.53      -5.60      15.72
C      -6.90      14.47       8.11
C      -6.21      -5.75      16.91
C      12.36      -6.13      16.91
C      11.69      -6.27      15.68
C      12.38      -6.12      14.48
C      17.74       0.44       2.03
C      17.75      -0.48       3.05
C      -1.62       1.74       2.15
C      15.06      -1.07       7.53
C      -1.65      -0.14       4.32
C      -1.16       1.16       4.51
C      -8.14      10.31      10.06
C      -1.14       2.09       3.45
C      -4.03      -5.47      13.11
C      14.57      -5.87      13.26
C      -4.62      11.94      10.74
C      -4.33      11.11      11.97
C       6.91      -1.65       8.29
C       7.65      -0.34       8.46
C      10.73       4.06       8.33
C       9.24       4.33       8.43
C      -1.48       2.37       6.53
C      17.70      -2.43       5.31
C      -0.74       2.72       7.80
C      -1.16       4.51       3.20
C      -0.76       5.64       4.13
C      -1.31      -1.02       6.74
N       7.95      12.40      11.21
N       3.30       9.98       0.02
N      11.66      -6.58      18.04
N      -3.82      -2.06       9.18
N      -1.21       2.51       1.08
N      -1.37      -3.74      12.09
N       6.99      13.96       8.17
N      -1.42      -2.63      11.25
N       6.82      12.60       8.28
N      15.49      -2.25       7.96
N      -3.55      -5.82      11.90
N      -8.02      14.43       8.85
N       8.66      12.40       5.83
N      -9.15      11.14      10.32
N      -2.19      -3.03       6.52
N      -1.63      -2.14       7.39
N      10.00      11.20       9.18
N       8.10      13.63       5.52
N      -7.72      13.61       9.93
N       3.51       9.37       1.12
O      -5.98      12.43      10.85
O       7.87      -2.68       7.98
O      11.40       5.33       8.11
O      -0.62       1.53       5.73
O      -0.56       3.29       3.72
F       5.75      11.81      11.57
F      -1.61      -0.34      11.50
F       5.08      11.07       8.23
F      14.41      -0.99       6.35
F       8.06      10.20       5.53
F      -6.81      15.17       6.98
F      -1.64      15.35       5.65
F      12.98       3.72       5.79
F      -3.14       5.17       7.43
F      -1.49      -4.16      14.35
F      -3.52       0.35      13.37
F       3.12      12.33       1.50
F      17.26       0.02       0.83
