50

Al       4.02      -3.37       5.84
H       3.17      -1.08       2.46
H       3.23       1.05       1.20
H       0.90       2.92       4.30
H       0.90       1.56       0.38
H       3.17      -1.59       9.51
H       3.23       5.17       0.31
H       0.90       5.63       1.16
H       3.17       6.04       5.54
H       3.23       3.89       4.33
H       1.04       1.63       6.59
H       0.79      -0.12       6.48
H       3.70       0.98       5.83
H       1.04       6.95       9.79
H       0.79       7.93       8.32
H       3.70      -5.54       9.61
H       1.04       8.26       1.13
H       0.79       9.04       2.70
H       3.70       7.92       2.07
C       1.95      -3.37       7.89
C       1.95       8.33       4.81
C       1.95      -1.60       4.81
C       2.64      -0.20       2.85
C       2.69       0.99       2.15
C       2.05       2.14       2.65
C       1.39       2.04       3.88
C       1.35       0.84       4.61
C       1.97      -0.29       4.07
C       1.39      -4.38      11.49
C       1.35      -4.42      10.10
C       1.97      -3.38       9.38
C       2.64      -2.36      10.07
C       2.69      -2.36      11.46
C       2.05       3.37       0.53
C       1.39       5.72       2.13
C       1.35       6.94       2.80
C       1.97       7.04       4.05
C       2.64       5.94       4.59
C       2.69       4.73       3.90
C       2.05       4.60       2.66
C       0.66       0.83       5.95
C       0.66       7.91       9.41
C       0.66       8.11       2.15
N       2.08       3.37       1.95
O       0.98      -2.39       4.59
O       0.98      -2.78       7.31
O       0.98       8.54       5.61
O       2.92      -1.82       5.61
O       2.92       9.14       4.61
O       2.92      -3.95       7.29
