220

Cu      10.86      17.15      19.83
Cu       9.55      18.45      17.23
Cu      12.11      19.77      18.58
Cu      18.14      27.03       5.02
Cu      19.37      25.80       2.38
Cu      16.80      24.47       3.70
Cu      25.28      12.32      24.71
Cu      24.01      11.04      27.32
Cu      26.58       9.73      26.00
Cu       3.65       2.47       9.85
Cu       4.90       3.71      12.48
Cu       2.32       5.05      11.16
H       8.92      14.68      20.27
H       7.16      16.43      16.72
H      14.49      20.31      20.62
H      12.81      16.67      22.28
H       9.07      20.44      14.82
H      12.61      22.19      16.60
H      20.14      29.44       5.53
H      21.76      27.82       1.86
H      14.41      23.95       5.73
H      16.21      27.47       7.50
H      19.84      23.86      29.64
H      16.28      22.08       1.68
H      23.30      14.75      24.24
H      21.63      13.07      27.86
H       0.04       9.21      23.98
H      27.25      12.81      22.27
H      23.51       9.04       0.02
H      27.10       7.33      28.01
H       5.64       0.06       9.35
H       7.29       1.69      13.01
H      28.85       5.56       9.14
H       1.72       2.03       7.38
H       5.36       5.67      14.93
H       1.82       7.45      13.16
H      22.78       0.57       1.55
H      22.31       1.02       5.82
H      24.00       2.81       5.81
H      24.49       2.34       1.56
H       6.29      14.02      16.36
H       6.58      13.82      20.65
H       4.87      12.04      20.68
H       4.55      12.27      16.39
H       7.86      28.48       9.05
H       8.33      28.94      13.31
H      10.05      27.18      13.31
H       9.56      26.69       9.06
H      20.92      15.59      23.90
H      20.81      15.52      28.21
H      19.09      17.28      28.20
H      19.23      17.39      23.89
H      28.05       5.94       6.67
H      28.26       1.64       6.54
H      26.57       1.61       4.75
H      26.32       5.91       4.91
H      15.00      16.37      23.34
H      15.51      20.62      22.86
H      17.23      20.61      24.63
H      16.69      16.37      25.13
H       0.89       8.85      21.57
H       0.70      13.16      21.40
H       2.39      13.16      19.61
H       2.61       8.86      19.81
H      13.62      23.56       8.21
H      13.82      27.86       8.32
H      12.13      27.90      10.12
H      11.89      23.60       9.98
H      23.16       6.60       0.84
H      27.47       6.54       0.74
H      27.48       4.80       2.48
H      23.18       4.89       2.62
H       8.71      22.89      14.01
H      13.01      22.97      14.15
H      13.04      24.72      12.41
H       8.73      24.61      12.25
H      15.91      21.30      28.95
H      20.21      21.42      28.83
H      20.21      19.69      27.07
H      15.91      19.55      27.22
H       5.74       8.06      15.77
H       1.44       8.28      15.58
H       1.44      10.02      17.32
H       5.74       9.78      17.55
C       8.64      15.28      19.41
C       7.59      15.10      18.49
C       7.76      16.16      17.58
C      13.91      19.42      20.87
C      14.10      18.49      21.91
C      13.07      17.55      21.70
C       9.93      20.71      15.42
C      10.85      21.76      15.25
C      11.75      21.59      16.31
C      20.38      28.87       4.64
C      21.40      29.09       3.69
C      21.20      28.06       2.75
C      15.02      24.80       6.01
C      14.87      25.70       7.08
C      15.92      26.62       6.89
C      18.97      23.56       0.53
C      18.05      22.51       0.35
C      17.14      22.68       1.41
C      23.04      14.17      25.11
C      22.02      14.37      26.05
C      22.21      13.33      26.98
C      28.38      10.09      23.72
C      28.55      11.01      22.67
C      27.52      11.94      22.86
C      24.39       8.79      29.15
C      25.31       7.75      29.33
C      26.23       7.92      28.28
C       5.89       0.62      10.24
C       6.92       0.42      11.18
C       6.72       1.45      12.11
C       0.53       4.70       8.86
C       0.38       3.80       7.80
C       1.43       2.88       7.99
C       4.50       5.96      14.32
C       3.59       7.01      14.50
C       2.68       6.85      13.44
C      23.04       1.05       2.50
C      22.40       0.65       3.69
C      22.77       1.31       4.87
C      23.73       2.32       4.88
C      24.36       2.70       3.68
C      24.01       2.05       2.49
C       5.98      13.60      17.31
C       6.57      14.06      18.50
C       6.15      13.47      19.71
C       5.18      12.47      19.73
C       4.59      12.03      18.54
C       5.00      12.61      17.33
C       8.33      28.20      10.00
C       7.96      28.85      11.18
C       8.60      28.46      12.37
C       9.57      27.46      12.38
C       9.92      26.80      11.19
C       9.29      27.19      10.00
C      20.53      15.97      24.85
C      21.00      15.42      26.06
C      20.46      15.92      27.26
C      19.49      16.92      27.25
C      19.04      17.47      26.04
C      19.58      16.98      24.84
C      27.72       4.98       6.26
C      28.29       3.79       6.75
C      27.85       2.58       6.18
C      26.89       2.56       5.17
C      26.32       3.76       4.70
C      26.75       4.97       5.27
C      15.47      17.31      23.63
C      15.11      18.50      22.96
C      15.77      19.68      23.35
C      16.73      19.68      24.35
C      17.08      18.49      25.01
C      16.43      17.30      24.63
C       1.22       9.81      21.15
C       0.65      11.00      21.62
C       1.10      12.21      21.05
C       2.06      12.22      20.04
C       2.62      11.01      19.58
C       2.19       9.80      20.16
C      13.29      24.52       8.62
C      13.86      25.71       8.13
C      13.41      26.92       8.69
C      12.45      26.94       9.70
C      11.88      25.75      10.17
C      12.32      24.53       9.61
C      24.11       6.22       1.21
C      25.31       6.71       0.65
C      26.52       6.17       1.14
C      26.53       5.19       2.12
C      25.33       4.72       2.68
C      24.12       5.25       2.20
C       9.66      23.28      13.66
C      10.86      22.79      14.22
C      12.07      23.33      13.74
C      12.09      24.32      12.76
C      10.89      24.79      12.20
C       9.67      24.25      12.66
C      16.86      20.95      28.55
C      18.06      21.50      29.03
C      19.26      21.02      28.47
C      19.27      20.04      27.49
C      18.06      19.49      27.02
C      16.85      19.96      27.57
C       4.79       8.48      16.12
C       3.59       8.03      15.54
C       2.39       8.61      16.00
C       2.39       9.59      16.98
C       3.59      10.02      17.56
C       4.80       9.45      17.11
N       8.82      16.91      17.94
N       9.37      16.37      19.07
N      12.34      17.90      20.62
N      12.86      19.05      20.10
N      11.39      20.52      17.06
N      10.27      19.97      16.50
N      20.15      27.30       3.11
N      19.64      27.81       4.28
N      16.64      26.28       5.80
N      16.08      25.16       5.25
N      17.50      23.74       2.16
N      18.63      24.30       1.61
N      23.26      12.57      26.61
N      23.78      13.09      25.46
N      26.78      11.59      23.94
N      27.32      10.45      24.47
N      25.87       8.99      27.53
N      24.73       9.52      28.07
N       5.66       2.21      11.75
N       5.15       1.69      10.59
N       2.15       3.22       9.08
N       1.59       4.34       9.62
N       3.04       5.78      12.69
N       4.16       5.22      13.24
N      25.34       3.73       3.69
N       3.60      11.02      18.56
N      10.90      25.78      11.19
N      18.06      18.49      26.03
