66

Zn       5.92       5.41       5.51
Zn       3.09       5.27       5.46
H       2.27       9.44       5.14
H       7.08       2.27       6.18
H       2.49       4.33       9.56
H       2.61       4.63       1.03
H       7.17       7.36       1.50
H       7.10       3.45       3.96
H       8.62       2.92       3.32
H       7.90       8.81       8.06
H       6.97       8.11       6.86
H       0.66       5.95       9.06
H       2.01       6.70       8.54
H       7.83       5.70       1.53
H       6.32       7.87       3.79
H       7.98       8.17       3.82
H       7.11       6.99      10.02
H       7.74       5.31      10.03
H       0.88       3.83       3.97
H       8.32       6.44       8.29
H       0.71       8.07       7.01
H       9.01      10.07       4.64
H       9.29       1.21       5.88
C       4.57       5.24       8.06
C       3.53       4.99       0.57
C       4.59       5.39       1.42
C       4.38       7.93       5.31
C       5.74       5.83       0.77
C       7.14       6.37       1.01
C       6.97       5.98      10.44
C       0.30       6.05       6.27
C       0.32       4.48       4.64
C       8.74       4.49       4.59
C       8.77       6.06       6.23
C       5.60      10.20       4.99
C       8.63       7.02       7.40
C       0.38       7.10       7.40
C       4.49       5.37       2.90
C       4.58       2.74       5.42
C       6.89       9.71       4.57
C       8.02      10.47       4.88
C       8.39       0.69       5.55
C       7.15       1.28       5.75
C       5.97       0.59       5.37
C       4.40       9.42       5.05
C       3.18      10.05       5.11
C       3.56       0.45       5.14
C       4.68       1.24       5.34
C       5.56       5.44      10.39
C       4.50       5.10       9.55
C       3.33       4.64      10.19
N       1.03       5.25       5.48
N       8.01       5.32       5.41
N       8.08       3.68       3.73
N       7.93       8.26       7.20
N       1.00       6.83       8.67
N       7.05       8.58       3.81
Cl       1.95       1.07       4.92
O       5.70       5.05       7.50
O       3.49       5.56       7.47
O       5.43       7.41       5.82
O       3.31       7.30       5.06
O       5.52       5.81       3.53
O       3.42       4.94       3.45
O       5.58       3.43       4.99
O       3.52       3.26       5.87
