65

Al       2.28       3.95       7.84
H       3.38       5.78       1.59
H       3.30       7.72      13.17
H       4.23      14.35       9.52
H       2.34       9.84       9.54
H       2.70      16.17      13.11
H       1.52       2.14       1.65
C       4.39       3.93       5.81
C       4.31       5.64       8.99
C       2.27      18.57       9.01
C       3.86       4.97       2.13
C       4.55       3.96       1.44
C       3.33       7.81      12.08
C       2.81       8.94      11.45
C       3.49      15.10      11.40
C       3.71      15.17      10.02
C       2.78       8.98      10.05
C       3.25       7.90       9.32
C       3.86       6.76       9.91
C       3.84       6.76      11.32
C       3.30      16.28       9.31
C       2.60      17.37       9.89
C       2.39      17.25      11.28
C       2.84      16.16      12.03
C       0.98       2.94       2.16
C       0.90       2.93       3.55
C       4.42       3.93       4.28
C       3.81       4.94       3.52
C       4.32      12.91      14.17
C       1.52      10.90      14.22
C       4.85      11.83      16.12
C       4.01      13.95      12.16
C       1.06      12.03      12.11
C       2.21      10.05      12.21
N       0.90      11.95      13.50
N       1.41      10.88      15.54
N       4.18      12.83      15.49
N       3.74      13.89      13.47
N       4.74      13.07      11.45
N       2.20       9.96      13.55
N       1.70      11.05      11.47
N       3.58      18.10       4.25
N       3.12       6.06       4.18
N       1.76      18.31      12.13
N       3.68      16.18       7.87
N       2.99       8.07       7.86
N       6.30      21.89      12.15
O       5.38      19.22       9.15
O       3.38       3.39       6.35
O       3.46       5.38       8.08
O       3.17      18.82       8.15
O       1.24       5.07       9.11
O       1.20       4.47       6.36
O       3.18      17.86       5.39
O       4.45      17.48       3.63
O       3.46       6.31       5.34
O       2.27       6.67       3.52
O       4.92      18.85      11.70
O       2.29      18.51      13.22
O       4.75      16.69       7.53
O       2.95      15.47       7.17
O       1.95       7.57       7.44
O       3.77       8.79       7.24
O       3.02      21.17      11.71
O       5.71      21.74      13.22
