154

Zn       3.94       7.85       8.77
Zn      -2.02      27.67       9.28
Zn      19.88      29.08      11.50
Zn      18.67      27.95       8.77
Zn      19.88       9.60       0.81
Zn       3.94      23.30      17.25
Zn      18.67      12.51       0.30
Zn      -2.02      12.23       0.81
H      26.97      17.93      18.47
H      26.97      15.73      17.27
H       4.03      17.76      13.57
H       4.03      19.95      14.78
H      26.97      11.90      15.17
H      26.97       9.71      13.96
H       4.02      11.73      10.27
H       4.03      13.93      11.47
H      -1.48      15.77       2.91
H      -1.47      17.96       4.12
H      18.12      18.38       3.36
H      18.13      16.19       2.15
H      -1.47      21.79       6.22
H      -1.48      23.99       7.43
H      18.13      24.41       6.67
H      18.12      22.21       5.46
H      16.66       8.02       2.92
H      14.58       7.35       4.12
H      12.90      11.26       3.36
H      15.00      11.91       2.15
H      10.92       6.20       6.22
H       8.83       5.55       7.43
H       7.16       9.43       6.67
H       9.25      10.10       5.46
H       7.16      24.23      14.78
H       9.25      24.88      13.57
H      10.92      26.34      17.27
H       8.83      25.67      18.47
H      12.90      26.04      11.47
H      15.00      26.70      10.27
H      16.66      28.15      13.96
H      14.57      27.49      15.17
C       6.63       7.06       7.83
C      22.20      27.38      12.20
C      27.41       9.29      11.33
C      17.20      27.86      11.33
C       1.62       7.54       6.96
C      20.23      25.63       7.83
C       3.59      20.37      17.41
C       1.62      25.00      16.54
C      17.20      10.40       1.75
C      20.23      14.55       1.75
C      22.20       9.92       2.62
C       6.63      24.52      17.41
C       0.79       8.15       5.85
C      23.03       9.31       3.73
C      23.50       7.49       5.30
C       0.32       9.97       4.28
C      22.74       8.05       4.28
C       1.09       9.41       5.30
C      -0.79      26.77      13.31
C       0.80      25.60      15.43
C      22.74      26.98      14.67
C       1.09      25.39      14.07
C      23.50      26.42      15.69
C       0.32      25.95      13.05
C      27.41      19.06      16.69
C      27.16      17.87      17.40
C      27.16      16.66      16.73
C      27.41      16.60      15.34
C       3.84      17.80      14.64
C       3.84      19.02      15.31
C      27.41      15.36      14.66
C      27.41      14.29      14.08
C      27.41      13.05      13.40
C      27.16      11.85      14.10
C      27.16      10.64      13.43
C      27.41      10.59      12.05
C       3.84      11.78      11.34
C       3.84      13.00      12.01
C      -3.59      15.85       2.47
C      -2.40      16.35       3.02
C      -2.39      17.57       3.69
C      -3.59      18.31       3.82
C      19.04      17.80       3.26
C      19.05      16.59       2.59
C      20.23      19.55       4.50
C      20.23      20.62       5.08
C      20.23      21.86       5.76
C      -2.39      22.37       6.32
C      -2.40      23.59       6.99
C      20.23      24.32       7.11
C      19.05      23.82       6.56
C      19.04      22.61       5.89
C      15.95      10.00       2.47
C      15.83       8.72       3.02
C      14.67       8.35       3.69
C      13.60       9.26       3.82
C      13.73      10.55       3.26
C      14.89      10.92       2.59
C      12.42       8.89       4.50
C      11.40       8.57       5.08
C      10.22       8.19       5.76
C      10.09       6.90       6.32
C       8.93       6.54       6.99
C       7.87       7.45       7.12
C       7.99       8.74       6.56
C       9.15       9.11       5.89
C       7.87      24.91      16.69
C       7.99      24.69      15.31
C       9.15      25.05      14.64
C      10.22      25.65      15.34
C      10.09      25.87      16.73
C       8.93      25.51      17.40
C      11.40      26.03      14.66
C      12.42      26.35      14.08
C      13.60      26.72      13.40
C      13.73      26.50      12.01
C      14.89      26.87      11.34
C      15.95      27.46      12.05
C      15.83      27.69      13.43
C      14.67      27.32      14.10
O      -3.59      28.82       9.58
O       5.70       7.94       7.91
O      -1.26      27.11      11.02
O      27.17       8.24      12.03
O       6.58       5.87       8.31
O       3.82       9.31      10.07
O      21.22      28.10      12.56
O      18.12      28.40      12.03
O      25.08       6.40       7.37
O      17.24      27.62      10.07
O       2.61       8.23       7.37
O      -2.47      26.03       8.31
O      19.12      26.25       7.91
O       3.59      23.56      19.16
O      27.17      20.34      18.67
O       2.61      24.28      16.18
O      17.24      11.58       1.27
O       3.82      21.41      16.71
O      18.12       9.52       1.67
O      25.09      25.26      17.73
O      19.12      14.15       1.27
O      -1.26      11.06       2.21
O      -2.47      13.93       1.67
O      21.22       9.23       2.21
O       5.70      23.98      16.71
O       6.58      24.75      18.67
F      23.11       6.27       5.73
F       0.71      11.18       3.85
F      21.70       7.31       3.85
F       2.13      10.15       5.73
F      21.70      27.74      15.06
F       2.13      24.63      13.68
F      23.11      26.71      16.95
F       0.71      25.66      11.79
