272

Zn       3.02      17.04      12.82
Zn       3.02       2.21       6.43
Zn      11.50       3.20      11.84
Zn      11.50      16.05       7.42
Zn       5.45      11.84       3.20
Zn       5.45       7.42      16.05
Zn      13.93       6.43       2.21
Zn      13.93      12.82      17.04
Zn      13.93       2.21       6.43
Zn      13.93      17.04      12.82
Zn       5.45      16.05       7.42
Zn       5.45       3.20      11.84
Zn      11.50       7.42      16.05
Zn      11.50      11.84       3.20
Zn       3.02      12.82      17.04
Zn       3.02       6.43       2.21
H       1.39      14.79      11.30
H       5.32      17.08      15.11
H       2.30       0.28      14.77
H       5.06      14.61      12.41
H       4.80       0.03      11.40
H       1.39       4.47       7.95
H       5.32       2.17       4.14
H       2.30      18.97       4.48
H       5.06       4.64       6.84
H       4.80      19.22       7.85
H       9.87       1.67      14.09
H      13.80       5.48      11.80
H      10.77       5.15       9.34
H      13.54       2.78      14.27
H      13.28       1.77       9.60
H       9.87      17.58       5.16
H      13.80      13.77       7.45
H      10.77      14.10       9.91
H      13.54      16.47       4.98
H      13.28      17.48       9.66
H       7.09      14.09       1.67
H       3.15      11.80       5.48
H       6.18       9.34       5.15
H       3.41      14.27       2.78
H       3.67       9.60       1.77
H       7.09       5.16      17.58
H       3.15       7.45      13.77
H       6.18       9.91      14.11
H       3.41       4.98      16.47
H       3.67       9.66      17.48
H      15.56       7.95       4.47
H      11.63       4.14       2.17
H      14.66       4.48      18.97
H      11.89       6.84       4.64
H      12.15       7.85      19.22
H      15.56      11.30      14.79
H      11.63      15.11      17.08
H      14.66      14.77       0.28
H      11.89      12.41      14.61
H      12.15      11.40       0.03
H      15.56       4.47       7.95
H      11.63       2.17       4.14
H      14.66      18.97       4.48
H      11.89       4.64       6.84
H      12.15      19.22       7.85
H      15.56      14.79      11.30
H      11.63      17.08      15.11
H      14.66       0.28      14.77
H      11.89      14.61      12.41
H      12.15       0.03      11.40
H       7.09      17.58       5.16
H       3.15      13.77       7.45
H       6.18      14.10       9.91
H       3.41      16.47       4.98
H       3.67      17.48       9.66
H       7.09       1.67      14.09
H       3.15       5.48      11.80
H       6.18       5.15       9.34
H       3.41       2.78      14.27
H       3.67       1.77       9.60
H       9.87       5.16      17.58
H      13.80       7.45      13.77
H      10.77       9.91      14.11
H      13.54       4.98      16.47
H      13.28       9.66      17.48
H       9.87      14.09       1.67
H      13.80      11.80       5.48
H      10.77       9.34       5.15
H      13.54      14.27       2.78
H      13.28       9.60       1.77
H       1.39      11.30      14.79
H       5.32      15.11      17.08
H       2.30      14.77       0.28
H       5.06      12.41      14.61
H       4.80      11.40       0.03
H       1.39       7.95       4.47
H       5.32       4.14       2.17
H       2.30       4.48      18.97
H       5.06       6.84       4.64
H       4.80       7.85      19.22
H      16.95      18.21      13.32
H      16.95       1.04       5.93
H       8.48       3.69      10.67
H       8.48      15.56       8.58
H       8.48      10.67       3.69
H       8.48       8.58      15.56
H       0.00       5.93       1.04
H      -0.00      13.32      18.21
H       1.94      14.62      14.62
H       1.94       4.63       4.63
H      10.41       4.99      14.26
H      10.41      14.26       4.99
H       6.54      14.26       4.99
H       6.54       4.99      14.26
H      15.02       4.63       4.63
H      15.02      14.62      14.62
C       0.69      15.49      11.73
C       4.62      16.27      15.30
C       2.97       0.60      13.98
C       4.95      15.14      11.46
C       4.26       0.45      12.24
C       0.69       3.76       7.52
C       4.62       2.98       3.95
C       2.97      18.65       5.27
C       4.95       4.12       7.79
C       4.26      18.81       7.01
C       9.17       2.10      13.38
C      13.10       5.67      12.60
C      11.45       4.36       9.02
C      13.42       1.84      13.74
C      12.73       2.61       9.18
C       9.17      17.15       5.87
C      13.10      13.58       6.65
C      11.45      14.89      10.23
C      13.42      17.41       5.51
C      12.73      16.64      10.07
C       7.79      13.38       2.10
C       3.86      12.60       5.67
C       5.51       9.02       4.36
C       3.53      13.74       1.84
C       4.22       9.18       2.61
C       7.79       5.87      17.15
C       3.86       6.65      13.58
C       5.50      10.23      14.89
C       3.53       5.51      17.41
C       4.22      10.07      16.64
C      16.27       7.52       3.76
C      12.33       3.95       2.98
C      13.98       5.27      18.65
C      12.01       7.79       4.12
C      12.70       7.01      18.81
C      16.27      11.73      15.49
C      12.33      15.30      16.27
C      13.98      13.98       0.60
C      12.01      11.46      15.14
C      12.70      12.24       0.45
C      16.27       3.76       7.52
C      12.33       2.98       3.95
C      13.98      18.65       5.27
C      12.01       4.12       7.79
C      12.70      18.81       7.01
C      16.27      15.49      11.73
C      12.33      16.27      15.30
C      13.98       0.60      13.98
C      12.01      15.14      11.46
C      12.70       0.45      12.24
C       7.79      17.15       5.87
C       3.86      13.58       6.65
C       5.50      14.89      10.23
C       3.53      17.41       5.51
C       4.22      16.64      10.07
C       7.79       2.10      13.38
C       3.86       5.67      12.60
C       5.50       4.36       9.02
C       3.53       1.84      13.74
C       4.22       2.61       9.18
C       9.17       5.87      17.15
C      13.10       6.65      13.58
C      11.45      10.23      14.89
C      13.42       5.51      17.41
C      12.73      10.07      16.64
C       9.17      13.38       2.10
C      13.10      12.60       5.67
C      11.45       9.02       4.36
C      13.42      13.74       1.84
C      12.73       9.18       2.61
C       0.69      11.73      15.49
C       4.62      15.30      16.27
C       2.97      13.98       0.60
C       4.95      11.46      15.14
C       4.26      12.24       0.45
C       0.69       7.52       3.76
C       4.62       3.95       2.98
C       2.97       5.27      18.65
C       4.95       7.79       4.12
C       4.26       7.01      18.81
C      16.95      17.27      12.78
C      16.95       1.98       6.47
C       8.48       3.15      11.61
C       8.48      16.10       7.64
C       8.48      11.61       3.15
C       8.48       7.64      16.10
C       0.00       6.47       1.98
C      -0.00      12.78      17.27
C       2.86      15.02      15.02
C       2.86       4.23       4.23
C      11.34       5.40      13.86
C      11.34      13.86       5.40
C       5.61      13.86       5.40
C       5.61       5.40      13.86
C      14.09       4.23       4.23
C      14.09      15.02      15.02
N       1.12      16.62      12.40
N       3.50      16.09      14.51
N       3.44      18.98      13.02
N       4.13      16.25      11.36
N       1.12       2.63       6.86
N       3.50       3.16       4.74
N       3.44       0.28       6.23
N       4.13       3.01       7.90
N       9.60       2.77      12.25
N      11.98       4.88      12.79
N      11.91       3.40       9.90
N      12.61       1.73      12.63
N       9.60      16.48       7.00
N      11.98      14.37       6.46
N      11.91      15.85       9.35
N      12.61      17.52       6.62
N       7.36      12.25       2.77
N       4.97      12.79       4.88
N       5.04       9.90       3.40
N       4.35      12.63       1.73
N       7.36       7.00      16.48
N       4.97       6.46      14.37
N       5.04       9.35      15.85
N       4.35       6.62      17.52
N      15.84       6.86       2.63
N      13.45       4.74       3.16
N      13.52       6.23       0.28
N      12.82       7.90       3.01
N      15.84      12.39      16.62
N      13.45      14.51      16.09
N      13.52      13.02      18.98
N      12.82      11.36      16.25
N      15.84       2.63       6.86
N      13.45       3.16       4.74
N      13.52       0.28       6.23
N      12.82       3.01       7.90
N      15.84      16.62      12.40
N      13.45      16.09      14.51
N      13.52      18.98      13.02
N      12.82      16.25      11.36
N       7.36      16.48       7.00
N       4.97      14.37       6.46
N       5.04      15.85       9.35
N       4.35      17.52       6.62
N       7.36       2.77      12.25
N       4.97       4.88      12.79
N       5.04       3.40       9.90
N       4.35       1.73      12.63
N       9.60       7.00      16.48
N      11.98       6.46      14.37
N      11.91       9.35      15.85
N      12.61       6.62      17.52
N       9.60      12.25       2.77
N      11.98      12.79       4.88
N      11.91       9.90       3.40
N      12.61      12.63       1.73
N       1.12      12.39      16.62
N       3.50      14.51      16.09
N       3.44      13.02      18.98
N       4.13      11.36      16.25
N       1.12       6.86       2.63
N       3.50       4.74       3.16
N       3.44       6.23       0.28
N       4.13       7.90       3.01
