84

Zn       6.01       7.91       9.67
Zn       8.80       7.91       9.67
H       5.26       8.21      13.91
H       1.25       5.81       9.36
H      13.57       5.81       9.36
H       1.25      10.10       9.92
H       5.44      12.87       7.29
H       4.53      14.20       6.48
H       3.72      13.15       7.69
H       9.37       3.00       7.31
H      10.28       1.68       6.48
H      11.09       2.71       7.70
H       4.54       1.68       6.48
H       9.55       8.20       5.43
H       5.44       3.00       7.31
H       3.72       2.71       7.71
H      10.29      14.20       6.48
H       9.37      12.87       7.29
H      11.09      13.15       7.69
H       5.27       8.20       5.43
H       9.55       8.21      13.91
H       5.26       8.65      16.37
H       9.56       8.64       2.96
H       5.26       8.64       2.96
H       9.56       8.65      16.37
H      13.57      10.10       9.92
C       7.41      10.51       9.47
C      14.12       9.17       9.79
C       1.38       7.95       9.64
C      13.43       7.95       9.64
C       2.80       7.94       9.65
C      12.01       7.94       9.65
C       7.41       8.00      12.27
C       7.41       8.00       7.05
C       6.20       8.30      14.46
C       8.62       8.29       4.87
C       6.20       8.29       4.87
C       7.41       5.33       9.46
C       8.62       8.30      14.46
C       6.19       8.55      15.83
C       8.62       8.54       3.50
C       6.19       8.54       3.50
C       8.62       8.55      15.83
C       7.41       8.69      16.52
C       7.41       8.68       2.81
C       7.41       8.19      13.76
C       7.41       8.18       5.57
C       7.41       8.96       1.37
C       7.41       2.75       8.79
C       7.41       8.97      17.96
C       6.18       0.67       8.43
C       8.64      15.18       8.44
C       6.18      15.18       8.44
C       8.64       0.67       8.43
C       7.41       1.37       8.51
C       7.41      14.47       8.52
C       4.67      13.63       7.42
C      10.15       2.23       7.42
C       4.67       2.23       7.42
C       7.41      13.09       8.80
C      10.15      13.63       7.42
C       7.41      11.92       9.13
C       7.41       3.93       9.12
C       0.69       9.17       9.79
C      14.12       6.73       9.48
C       0.69       6.73       9.48
N       8.59       9.16      18.60
N       6.23       9.15       0.74
N       8.59       9.15       0.74
N       6.23       9.16      18.60
N      10.85       7.93       9.67
N       3.96       7.93       9.67
O       6.27       9.96       9.59
O       9.85       1.31       8.49
O       4.97       1.31       8.49
O       9.84      14.53       8.50
O       8.55       5.88       9.58
O       6.27       5.88       9.58
O       8.55       9.96       9.59
O       6.27       7.94      11.70
O       8.54       7.94       7.63
O       6.27       7.94       7.63
O       8.54       7.94      11.70
O       4.97      14.53       8.50
