104

Zn       7.59       9.23       5.48
Zn       0.01      -1.60       5.39
Zn       9.21      10.86       7.74
Zn      -0.01       1.63       5.38
Zn      10.81       9.26       5.49
Zn       1.61       0.00       7.63
Zn      -1.61       0.03       7.64
Zn       9.19       7.64       7.74
H      -1.96       0.28      11.89
H      -2.65       4.84       5.03
H       6.55       4.42       8.09
H      -2.64      13.67       5.04
H       4.78      -2.63       8.05
H      13.97       6.61       5.05
H       4.77       2.65       8.07
H      13.98      11.90       5.07
H       7.23       8.98       1.24
H       2.65      13.65       5.03
H      11.84       4.44       8.08
H       2.64       4.82       5.04
H      11.85      -4.38       8.09
H       4.43      11.87       5.05
H      -4.78       2.67       8.06
H       4.42       6.60       5.07
H      -4.77      -2.61       8.07
H       9.20      -7.05      11.86
H      -0.00       2.15       1.25
H       9.20       7.11      11.87
H      -0.00      16.32       1.26
H       6.56      -4.41       8.08
C      11.74       6.68       6.57
C      12.70       4.52       7.42
C       3.50       4.75       5.71
C      12.71      -4.46       7.43
C       3.51      13.72       5.69
C       4.49      12.74       5.70
C      -4.71       3.54       7.40
C       4.49       5.73       5.72
C       2.57      -2.56       6.51
C      -4.71      -3.48       7.42
C       5.59      12.87       6.57
C      -3.61       3.65       6.54
C       5.58       5.61       6.58
C      -3.61      -3.60       6.56
C      11.77      11.82       6.61
C       9.20      -7.98      12.42
C      -0.00       1.22       0.69
C       9.20       8.05      12.43
C      -0.00      17.25       0.70
C       2.54       2.58       6.55
C      -0.00       0.00       1.40
C       9.20       9.26      11.72
C       6.65      11.81       6.58
C      -2.56       2.59       6.52
C       6.64       6.67       6.60
C      -2.55      -2.55       6.54
C       9.20       9.26      10.23
C       0.00       0.01       2.90
C       9.18       9.38       3.02
C      -0.02      -0.12      10.10
C      -1.03       0.05      12.40
C       8.17       9.22       0.72
C       0.00      -0.25      11.59
C       9.20       9.51       1.54
C       5.70      -4.48       7.42
C      -3.51       4.77       5.69
C       5.69       4.50       7.43
C      -3.50      13.75       5.71
C       4.71      -3.50       7.40
C      13.90       5.75       5.70
C       4.71       3.52       7.42
C      13.91      12.76       5.72
C       3.62      -3.62       6.53
C      12.80       5.63       6.56
C       3.60       3.64       6.56
C      12.82      12.88       6.59
O       9.20       9.25       6.61
O       2.76      -1.55       7.27
O      11.96      10.81       5.85
O       2.68       1.62       7.37
O       6.50      10.84       5.76
O      -2.73       1.60       7.31
O       6.46       7.66       5.81
O      -2.70      -1.57       7.36
O      -0.00       0.02       6.51
O       7.62       6.51       7.40
O      -1.58      -2.71       5.72
O       7.62      11.97       7.40
O      -1.58       2.76       5.73
O      10.77      12.00       7.39
O       1.58       2.74       5.72
O      10.78       6.53       7.40
O       1.57      -2.74       5.73
O       9.19       8.12       9.65
O       0.01      -1.13       3.48
O       9.21      10.39       9.65
O      -0.01       1.15       3.47
O      10.31       9.48       3.60
O       1.11      -0.21       9.52
O       8.04       9.18       3.56
O      11.88       7.65       5.75
O      -1.16       0.09       9.57
F       1.18      -0.70      12.07
F      10.38       9.96       1.05
