94

Er       6.34      -0.00       9.37
Er       2.69       8.11       4.68
Er       2.68      -0.00       9.37
Er       6.34       8.11       4.68
H       2.75      -3.50      10.20
H       6.41      11.61       3.84
H       2.75       1.02       5.91
H       2.75       2.48      11.98
H       6.41       5.63       2.07
H       6.41       7.08       8.14
H       6.41       3.50      10.20
H       6.41      -1.03       5.91
H       6.41      -2.48      11.98
H       2.75      10.59       2.07
H       2.75       9.14       8.14
H       2.76       4.61       3.84
H       6.76      11.84       7.59
H       3.10      12.49       6.46
H       6.76       3.73       6.46
H       6.76       8.76       0.00
H       3.10       7.46       0.00
H       3.10       4.38       7.59
C       2.23      -4.17       9.51
C       5.89      12.28       4.54
C       2.23       1.96       5.68
C       2.23       2.21      12.90
C       5.89       5.90       1.15
C       5.89       6.15       8.36
C       5.89       4.17       9.51
C       5.89      -1.96       5.68
C       5.89      -2.21      12.90
C       2.23      10.32       1.15
C       2.23      10.07       8.37
C       2.23       3.94       4.54
C       1.01      -3.78       8.94
C       4.67      11.89       5.11
C       1.01       2.26       6.31
C       1.01       1.52      12.85
C       4.67       6.59       1.20
C       4.67       5.85       7.74
C       4.67       3.77       8.94
C       4.67      -2.26       6.31
C       4.67      -1.52      12.85
C       1.01       9.63       1.20
C       1.01      10.37       7.74
C       1.01       4.34       5.11
C       0.39      -4.65       8.05
C       4.04      12.76       6.00
C       0.39       3.46       6.00
C       0.39       9.30       0.00
C       4.04      -1.19      14.05
C       4.04       4.65       8.05
C       0.40      -2.44       9.16
C       4.06      10.55       4.88
C       0.40       1.39       7.35
C       0.40       1.05      11.58
C       4.06       7.06       2.47
C       4.06       6.72       6.70
C       4.06       2.44       9.17
C       4.06      -1.40       7.35
C       4.06      -1.05      11.58
C       0.40       9.16       2.47
C       0.40       9.51       6.70
C       0.40       5.67       4.88
N       2.83      -5.34       9.24
N       6.49      13.45       4.81
N       2.83       2.77       4.81
N       2.83      10.67       0.00
N       6.49      -2.56      14.05
N       6.49       5.34       9.24
O       0.99      -1.54       9.89
O       4.64       9.65       4.16
O       0.99       0.32       7.77
O       0.99       1.22      10.44
O       4.64       6.89       3.61
O       4.64       7.79       6.28
O       4.64       1.54       9.89
O       4.64      -0.32       7.77
O       4.64      -1.22      10.44
O       0.99       9.33       3.61
O       0.99       8.43       6.28
O       0.99       6.57       4.16
O       6.60      -2.18       8.63
O       2.94      10.29       5.42
O       6.60       1.73       7.84
O       6.60       0.45      11.62
O       2.94       7.66       2.43
O       2.94       6.38       6.20
O       2.94       2.18       8.63
O       2.94      -1.73       7.84
O       2.94      -0.45      11.62
O       6.60       8.56       2.43
O       6.60       9.84       6.20
O       6.60       5.93       5.42
