116

Zn      10.55       9.35       9.48
Zn       7.54       9.36       9.42
H      11.20      10.05       6.22
H       6.88       8.29      12.51
H      11.11       9.48      12.73
H       6.21       7.97       4.92
H      13.23       7.05      11.50
H       6.36       7.26       8.38
H      13.25      11.65       7.56
H       6.40      11.42      10.60
H      15.98       7.77      11.59
H       3.44       6.72       7.89
H      16.00      10.95       7.52
H       3.46      11.92      11.24
H      16.50       8.85       6.91
H       0.49       9.00      12.65
H      16.48       9.86      12.20
H       0.51       9.69       6.49
C       9.04      11.89      10.05
C       8.95       6.77       9.30
C       9.01       2.57      10.48
C       9.11      16.05      11.18
C       8.87       5.29       9.56
C       9.04      13.34      10.46
C      10.61       0.72      11.15
C       7.97      18.14      12.01
C      10.22      18.31      11.23
C       8.40       0.56      12.01
C       9.10      17.50      11.49
C       9.30       1.33      11.19
C      13.30       8.47      10.28
C       4.80       8.37       8.86
C      13.31      10.23       8.78
C       4.81      10.31      10.17
C      14.70       8.43      10.31
C       3.40       8.33       8.89
C      14.71      10.29       8.78
C       3.41      10.32      10.21
C      15.45       9.36       9.55
C       2.68       9.32       9.56
C      17.67       9.46       8.37
C       0.48       9.21      10.76
C      17.66       9.25      10.75
C       0.49       9.46       8.37
C       1.20       9.33       9.57
C      16.93       9.36       9.56
C       9.06       9.55       6.91
C       9.01       8.96      12.06
C      10.16       9.76       4.67
C       7.76       8.43      14.16
C      10.13       9.11      14.29
C       7.90       8.82       4.79
C      10.11       9.68       3.26
C       7.73       8.35      15.56
C      10.06       9.03      15.69
C       7.90       8.71       3.40
C       8.98       9.15       2.63
C       8.86       8.66      16.32
C       9.03       9.38       5.43
C       8.97       8.82      13.52
C       8.80       8.64      17.80
C       8.91       9.06       1.15
C       7.80       4.72      10.27
C       8.86      14.32       9.48
C       9.25      13.70      11.79
C       9.84       4.41       9.04
C       7.81       3.34      10.59
C       8.89      15.68       9.84
C       9.30      15.06      12.15
C       9.88       3.07       9.44
N       8.20      10.01       0.51
N       9.39       7.61      18.44
N       8.12       9.65      18.39
N       9.48       7.98       0.57
N      12.61       9.35       9.52
N       5.49       9.34       9.50
Cl      11.44      10.24       2.32
Cl       6.27       7.85      16.34
Cl      11.45       9.45      16.62
Cl       6.51       7.97       2.65
Cl       6.46       5.66      10.79
Cl       8.60      13.85       7.85
Cl       9.45      12.47      12.98
Cl      10.93       4.98       7.84
Cl       6.27       2.63      10.84
Cl       8.64      16.89       8.65
Cl       9.62      15.52      13.77
Cl      10.80       1.99       8.47
Cl      12.03       1.69      11.20
Cl       6.68      17.19      12.66
Cl      11.75      17.56      10.98
Cl       7.36       1.28      13.16
O      10.14      11.40       9.69
O       7.92       7.38       8.85
O      10.05       7.33       9.57
O       7.92      11.28      10.09
O      10.21       9.40       7.47
O       7.94       8.73      11.37
O      10.11       9.33      11.51
O       7.99       9.83       7.51
O      11.29      10.22       5.24
O       6.64       8.15      13.48
O      11.30       9.47      13.72
O       6.87       8.36       5.54
O      12.58       7.61      11.01
O       5.39       7.39       8.16
O      12.59      11.08       8.02
O       5.43      11.31      10.83
O      15.22       7.41      11.07
O       2.74       7.30       8.27
O      15.24      11.31       8.03
O       2.77      11.34      10.86
O      17.07       9.62       7.11
O       1.15       9.05      11.93
O      17.05       9.10      12.01
O       1.17       9.62       7.21
