218

Zn       3.09       6.91       8.76
Zn       1.94       5.13      11.07
Zn       3.89       3.87       8.76
Zn       5.04       5.64      11.06
Zn     -12.75      14.65      11.08
Zn      -3.89      -3.88      11.08
Zn     -11.60      16.42       8.75
Zn       8.93      15.91       8.75
H      -2.67      -7.38      17.63
H      -4.31      -3.40      17.63
H       3.61       3.24       2.19
H       3.38       7.54       2.19
H       8.32      16.10       2.19
H      12.62      16.23       2.19
H       1.48       4.61      17.63
H       5.50       6.15      17.64
H      -7.60      10.51      11.18
H      -5.72      13.42       8.64
H      -3.65       8.56      11.68
H      -2.32      10.60       8.14
H      14.59       0.27      11.18
H      12.70      -2.64       8.64
H      10.63       2.22      11.68
H       9.30       0.17       8.14
H      -2.03      -8.43      15.76
H      -1.79      -7.56      14.22
H     -12.98      13.20      14.54
H      -4.95      -2.35      15.76
H      -5.19      -3.22      14.22
H      -3.65      -2.42      14.54
H       3.47       2.01       4.06
H       2.89       2.69       5.60
H       4.62       2.64       5.27
H       3.51       8.76       4.06
H       4.09       8.08       5.60
H       2.36       8.14       5.27
H       7.10      16.26       4.07
H       7.79      16.83       5.60
H       7.70      15.10       5.28
H      13.85      16.07       4.06
H      13.15      15.50       5.60
H     -10.37      17.23       5.28
H       0.42       3.99      15.76
H       1.28       3.74      14.22
H       0.52       5.29      14.55
H       6.57       6.78      15.76
H       5.71       7.03      14.22
H       6.46       5.48      14.55
H      -9.78      10.60      11.73
H     -10.93      11.67      10.89
H     -10.15      12.22      12.37
H      -6.69      15.37       8.09
H      -8.14      15.98       8.93
H      -8.32      15.04       7.45
H      -2.36       7.09      12.79
H      -0.61       6.97      12.52
H      -1.70       5.89      11.66
H      -0.46      10.03       7.03
H       0.37       8.48       7.30
H       0.91       9.92       8.16
H      -6.85       0.18      11.73
H      -5.70      -0.89      10.89
H      -6.48      -1.45      12.37
H       4.02      16.95       8.09
H       5.47      16.34       8.93
H       5.65      17.28       7.45
H       9.35       3.68      12.79
H       7.59       3.80      12.52
H       8.68       4.88      11.66
H       7.44       0.74       7.03
H       6.62       2.29       7.30
H       6.07       0.86       8.16
C       0.49       7.33       9.91
C       1.60       2.46       9.91
C       3.49       5.39       6.32
C       6.50       3.44       9.91
C       5.38       8.31       9.91
C       3.49       5.39      13.50
C      -3.49      -5.39      13.49
C      -1.60      -2.47       9.91
C     -10.13      14.21       9.91
C      10.47      16.16       6.33
C       8.58      13.24       9.91
C      17.11      -3.44       9.91
C       6.21       9.58       9.91
C       7.76      11.98       9.91
C       7.33       9.72      10.73
C       6.67      11.81       9.05
C       8.05      10.91      10.77
C       5.88      10.66       9.09
C       0.78       1.19       9.91
C      -0.78      -1.20       9.91
C       1.10       0.11       9.09
C      -1.07      -0.14      10.77
C       0.31      -1.04       9.05
C      -0.35       1.05      10.73
C      -3.49      -5.39      14.98
C      -3.03      -6.54      15.68
C      -3.03      -6.51      17.08
C      -3.49      -5.39      17.79
C      -3.95      -4.27      17.08
C      -3.95      -4.24      15.68
C      -3.49      -5.39      19.21
C       3.49       5.39       0.61
C       3.49       5.39       2.02
C       3.56       4.18       2.74
C       3.57       4.15       4.13
C       3.49       5.39       4.84
C       3.41       6.62       4.13
C       3.42       6.60       2.74
C      10.47      16.16       4.84
C       9.24      16.11       4.14
C       9.26      16.12       2.75
C      10.47      16.16       2.03
C      11.68      16.21       2.75
C      11.71      16.22       4.14
C      10.47      16.16       0.61
C       3.49       5.38      19.21
C       3.49       5.38      17.80
C       2.36       4.96      17.08
C       2.33       4.96      15.69
C       3.49       5.39      14.99
C       4.65       5.81      15.69
C       4.62       5.81      17.08
C      -8.88      13.40       9.91
C      -8.83      12.19      10.65
C      -7.65      11.45      10.63
C      -6.52      11.87       9.91
C      -6.59      13.08       9.19
C      -7.76      13.85       9.17
C      -5.33      11.10       9.91
C      -4.31      10.44       9.91
C      -3.12       9.67       9.91
C      -2.90       8.70      10.90
C      -1.74       7.92      10.92
C      -0.76       8.14       9.91
C      -0.96       9.12       8.90
C      -2.14       9.86       8.92
C      15.86      -2.63       9.91
C      15.81      -1.42      10.65
C      14.63      -0.67      10.63
C      13.50      -1.10       9.91
C      13.58      -2.31       9.19
C      14.74      -3.08       9.17
C      12.32      -0.33       9.91
C      11.29       0.33       9.91
C      10.10       1.10       9.91
C       9.88       2.07      10.90
C       8.72       2.85      10.92
C       7.74       2.63       9.91
C       7.94       1.65       8.90
C       9.13       0.91       8.92
C      -2.52      -7.79      15.01
C      -4.46      -2.99      15.01
C       3.64       2.80       4.80
C       3.34       7.97       4.80
C       7.89      16.07       4.81
C      13.06      16.26       4.81
C       1.07       4.47      15.02
C       5.91       6.30      15.02
C      -9.99      11.64      11.45
C      -7.72      15.13       8.37
C      -1.59       6.92      12.03
C       0.02       9.40       7.79
C      16.97      -0.87      11.45
C      14.71      -4.36       8.37
C       8.57       3.86      12.03
C       6.97       1.37       7.79
N       7.81       8.59      11.57
N       6.34      12.85       8.04
N       9.14      11.03      11.79
N       4.65      10.64       8.25
N       2.33       0.13       8.25
N      -2.16      -0.26      11.79
N       0.65      -2.08       8.04
N      -0.83       2.18      11.57
O       3.49       5.39       9.91
O       1.56       7.88       9.47
O       1.53       3.16      10.97
O       4.15       4.46       6.92
O       0.42       6.13      10.35
O       2.83       6.31       6.92
O       2.26       2.69       8.86
O       5.42       2.89       9.47
O       5.45       7.61      10.97
O       6.56       4.64      10.35
O       4.72       8.08       8.86
O       2.38       5.61      12.90
O       4.60       5.16      12.90
O      20.12      -5.39       9.91
O      -3.68      -6.51      12.89
O      -2.79      -2.36      10.35
O     -10.41      14.88       8.85
O      -3.30      -4.27      12.89
O     -10.85      14.19      10.97
O      -1.01      -3.51       9.48
O      11.41      16.80       6.93
O       8.00      14.28       9.48
O       9.53      15.53       6.93
O       9.77      13.13      10.34
O      17.84      -3.42      10.97
O      17.39      -4.11       8.85
O       8.31       7.64      10.96
O       7.70       8.73      12.79
O       7.12      12.96       7.10
O       5.28      13.46       8.21
O       8.92      11.80      12.72
O      10.13      10.32      11.61
O       3.58      10.71       8.86
O       4.82      10.60       7.03
O       3.40       0.07       8.86
O       2.16       0.18       7.03
O      -1.94      -1.02      12.73
O      -3.15       0.45      11.61
O      -0.14      -2.19       7.10
O       1.70      -2.69       8.21
O      -1.33       3.13      10.97
O      -0.72       2.04      12.79
