85

Al       3.97       5.89      10.20
H       3.72      31.27      13.84
H       3.72      31.35      16.31
H       2.30      31.15      18.13
H       1.97      19.44       0.22
H       3.42      25.08       5.10
H       4.40      23.22       4.49
H       4.22      21.09       3.30
H       3.08      19.73       2.14
H       3.34      25.23      10.06
H       3.30      23.04       8.91
H       2.08      21.60       7.74
H       1.89      19.47       6.54
H       2.16      12.40       8.98
H       3.58      13.71       7.82
H       3.74      15.82       6.57
H       2.76      17.62       5.87
H       2.25       8.01       6.67
H       2.51      10.09       5.35
H       1.38      11.95       4.56
H       1.51      14.07       3.33
H       3.17      27.07      16.43
H       4.39      27.39      18.34
H       4.08      15.70       0.42
H       2.74      15.45       2.17
C       3.47      29.17      12.24
C       1.99       7.73       9.30
C       3.47      27.66       9.03
C       3.60      30.35      14.42
C       3.59      30.40      15.81
C       2.74      30.34      18.71
C       2.64      30.36      20.10
C       3.49      26.29       6.86
C       3.44      25.07       6.19
C       3.82      22.41       4.93
C       3.72      21.20       4.26
C       3.47      29.14      13.74
C       3.44      29.23      16.57
C       3.36      29.27      18.05
C       3.01      17.57       0.51
C       2.91      17.59       1.98
C       2.97      18.80       2.69
C       3.36      25.18       8.97
C       3.33      23.96       8.32
C       2.58      21.49       6.78
C       2.47      20.28       6.10
C       2.08      10.28       9.17
C       2.21      11.45       8.45
C       3.10      13.79       6.84
C       3.19      14.99       6.13
C       3.44      26.38       8.25
C       3.35      23.88       6.91
C       3.25      22.58       6.21
C       3.04      20.11       4.82
C       2.93      18.83       4.09
C       2.80      17.61       4.78
C       2.22       8.98       7.16
C       2.37      10.15       6.43
C       1.92      12.79       5.00
C       1.99      13.99       4.30
C       3.35      27.97      14.50
C       3.32      28.01      15.89
C       3.87      28.21      18.82
C       3.78      28.24      20.21
C       2.07       9.02       8.55
C       2.36      11.41       7.05
C       2.47      12.67       6.29
C       2.63      15.12       4.85
C       2.73      16.39       4.11
C       2.79      16.39       2.71
N       1.86      10.40      10.63
N       3.16      26.66      13.86
N       2.00       4.06       6.02
O       4.43      28.47       8.84
O       4.42      28.60      11.62
O       2.92       7.47      10.13
O       2.55      27.79       9.89
O       1.04       6.95       8.98
O       2.54      29.85      11.71
O       1.22       9.49      11.18
O       2.31      11.41      11.19
O       2.65      26.65      12.73
O       3.50      25.65      14.50
O       1.40       5.05       6.45
O       2.60       4.00       4.94
