140

Al       5.92      23.56      13.05
Al       2.58      23.61      12.94
Al      -0.11      11.76       0.08
Al       3.23      11.80       0.09
H       0.90      21.88      12.58
H       4.70       1.71      12.78
H       1.05      13.48      25.56
H       4.37      10.00      25.60
H       2.35      14.96      23.42
H       2.17      16.62      21.58
H      -0.42      15.75      20.47
H       2.05      18.78      17.46
H      -0.55      21.47      16.59
H      -0.51      19.74      18.39
H       6.25       8.54       2.60
H       6.18       6.85       4.44
H       3.61       7.81       5.40
H       6.08       4.84       8.42
H       3.31       1.95       9.43
H       3.49       3.67       7.62
H       3.11       8.76      23.24
H       3.26       7.03      21.44
H       5.84       7.91      20.35
H       3.34       4.92      17.39
H       6.04       2.11      16.42
H       5.94       3.79      18.28
H       2.86      13.85       3.55
H       2.64      15.62       5.30
H       0.05      16.81       4.52
H       2.38      19.75       7.48
H      -0.35      20.45      10.41
H      -0.20      18.84       8.51
H       0.12      13.33      23.11
H       0.80      14.15      21.72
H       1.65      21.35      14.96
H       0.92      20.03      15.83
H       4.03      10.19       2.72
H       4.75       9.41       4.11
H       5.51       2.23      10.85
H       4.81       3.56       9.95
H       5.33      10.36      22.96
H       4.64       9.54      21.58
H       3.82       2.41      14.85
H       4.54       3.70      15.77
H       0.68      14.18       2.11
H       1.34      15.54       2.99
H       1.89      22.12      10.17
H       1.20      21.36       8.75
C       4.28      21.91      11.20
C       4.20      22.06      14.89
C       1.33       1.61      14.74
C       1.32       1.47      11.08
C       4.88      13.32       1.97
C       4.39      13.46      24.14
C       1.08      10.24      23.97
C       1.57      10.09       1.83
C       4.37      14.41      23.01
C       3.19      15.13      22.76
C       3.08      16.05      21.73
C       4.21      16.29      20.90
C       5.39      15.57      21.12
C       5.51      14.63      22.16
C       4.15      17.26      19.87
C       4.11      18.12      19.01
C       4.10      19.13      18.01
C       2.94      19.37      17.27
C       2.90      20.36      16.26
C       4.10      21.09      15.99
C       5.24      20.86      16.78
C       5.27      19.90      17.78
C       1.61       9.13       2.95
C       0.45       8.37       3.23
C       0.41       7.44       4.25
C       1.57       7.23       5.04
C       2.72       7.97       4.78
C       2.78       8.92       3.74
C       1.56       6.25       6.07
C       1.53       5.39       6.93
C       1.46       4.39       7.93
C       0.27       4.20       8.65
C       0.15       3.22       9.65
C       1.30       2.43       9.96
C       2.47       2.61       9.21
C       2.58       3.56       8.21
C       1.09       9.30      22.83
C       2.26       8.57      22.58
C       2.35       7.62      21.58
C       1.21       7.37      20.78
C       0.04       8.10      20.99
C      -0.06       9.08      22.00
C       1.24       6.36      19.78
C       1.27       5.48      18.93
C       1.31       4.49      17.92
C       2.47       4.31      17.17
C       2.55       3.35      16.14
C       1.38       2.58      15.84
C       0.23       2.76      16.64
C       0.17       3.68      17.66
C       4.88      14.33       3.04
C       3.69      14.52       3.77
C       3.56      15.51       4.73
C       4.67      16.35       4.99
C       5.87      16.16       4.30
C       6.02      15.15       3.33
C       4.57      17.38       5.97
C       4.48      18.24       6.83
C       4.42      19.20       7.87
C       3.24      19.91       8.12
C       3.14      20.82       9.20
C       4.29      21.01      10.04
C       5.47      20.30       9.75
C       5.56      19.41       8.70
N       0.01      13.95      22.31
N       1.75      20.53      15.55
N       3.93       9.63       3.56
N       5.63       3.08      10.31
N       5.45       9.79      22.13
N       3.71       3.23      15.43
N       0.54      15.01       2.68
N       1.98      21.51       9.37
O       5.40      22.26      11.72
O       3.10      22.50      14.39
O       2.43       1.28      14.16
O       0.21       1.13      11.63
O       0.19       1.15      14.39
O       2.47       1.03      11.45
O       3.14      22.30      11.65
O       5.35      22.40      14.47
O       0.92      22.74      13.02
O       4.67       0.75      12.93
O       6.01      12.95       1.47
O       3.26      13.13      24.66
O       2.20      10.60      24.46
O       0.43      10.45       1.37
O      -0.06      10.61      24.43
O       2.68      10.50       1.37
O       3.75      12.89       1.56
O       5.52      13.02      24.55
O       1.55      12.61       0.12
O       4.89      10.96       0.02
