92

Al       6.55      14.47       7.83
Al       3.19       0.03       7.85
Al       0.04       7.24       0.02
Al       3.37       7.26       0.04
H       4.85      12.72       8.00
H       1.48       1.73       8.22
H       4.92       8.90      15.15
H       1.60       5.56      15.28
H       3.52       9.29       3.74
H       6.01      11.70       1.39
H       5.10      10.59       2.44
H       5.12      12.35       4.27
H       6.03      13.44       3.19
H       0.07       5.25      11.95
H       2.67       2.72      14.38
H       1.72       3.82      13.34
H       1.73       2.09      11.51
H       2.69       1.01      12.55
H       3.13       5.41       3.83
H       0.51       2.78       1.48
H       1.47       3.86       2.52
H       1.38       2.13       4.38
H       0.43       1.06       3.31
H       3.42       9.15      11.87
H       5.07      10.61      13.25
H       6.04      11.71      14.28
H       6.06      13.41      12.43
H       5.09      12.32      11.40
C       1.53      12.79       9.57
C       1.62      12.92       6.02
C       4.89       1.68       6.12
C       4.82       1.60       9.66
C       1.61       8.84      13.91
C       1.64       8.88       1.78
C       4.98       5.70       1.85
C       4.93       5.58      13.98
C       1.63       9.90       2.86
C       1.62      11.89       4.95
C       0.59      10.81       3.01
C       2.65      10.94       4.79
C       0.59      11.78       4.01
C       2.68       9.98       3.78
C       5.93      11.30       2.41
C       5.94      12.40       3.55
C       4.88       4.58      12.88
C       4.85       2.62      10.75
C       3.85       3.65      12.75
C       5.87       3.59      10.89
C       3.85       2.70      11.72
C       5.90       4.53      11.92
C       2.57       3.12      13.36
C       2.57       2.04      12.21
C       4.98       4.70       2.94
C       4.91       2.72       5.06
C       5.98       3.74       3.09
C       3.92       3.72       4.90
C       5.93       2.78       4.11
C       3.94       4.67       3.89
C       0.61       3.18       2.50
C       0.55       2.10       3.65
C       1.58       9.82      12.79
C       1.55      11.77      10.64
C       0.55      10.76      12.65
C       2.57      10.79      10.80
C       0.55      11.70      11.62
C       2.60       9.86      11.83
C       5.93      11.30      13.27
C       5.94      12.37      12.10
O       0.39      13.27       9.27
O       2.73      13.45       6.33
O       3.79       1.41       6.68
O       5.92       1.30       9.11
O       6.02       1.14       6.38
O       3.67       1.12       9.38
O       2.64      13.12       9.04
O       0.49      13.18       6.55
O       4.88      13.68       7.83
O       1.51       0.82       7.89
O       0.50       8.60      14.49
O       2.76       8.62       1.23
O       3.87       6.26       1.58
O       6.07       6.10      14.24
O       6.08       5.90       1.23
O       3.84       5.83      14.59
O       2.75       8.34      14.21
O       0.52       8.36       1.47
O       4.90       8.08      15.67
O       1.71       6.42       0.01
F       3.68      10.92       5.69
F       0.23       3.66       9.98
F       2.89       3.80       5.79
F       3.58      10.72       9.88
