52

Cu       3.99       6.89       6.89
Si       0.00       6.89       6.89
H       1.92       9.03       6.89
H       1.83      11.52       6.89
H       6.11       9.06       6.88
H       1.87       4.71       6.89
H       6.06       4.74       6.89
H       6.15       2.25       6.89
H       1.92       6.89       9.03
H       1.83       6.89      11.52
H       6.11       6.88       9.06
H       1.87       6.89       4.71
H       6.06       6.88       4.74
H       6.15       6.88       2.25
C       2.84       9.62       6.89
C       2.79      11.01       6.89
C       3.99      11.75       6.89
C       5.18      11.01       6.89
C       5.17       9.62       6.89
C       4.00      13.16       6.89
C       3.99       0.61       6.89
C       3.99       2.02       6.89
C       2.80       2.76       6.89
C       2.81       4.15       6.89
C       5.14       4.15       6.89
C       5.19       2.76       6.89
C       2.84       6.89       9.62
C       2.79       6.89      11.01
C       3.99       6.88      11.76
C       5.18       6.88      11.01
C       5.17       6.88       9.62
C       4.00       6.88      13.16
C       3.99       6.89       0.61
C       3.99       6.89       2.02
C       2.80       6.89       2.76
C       2.81       6.89       4.15
C       5.14       6.88       4.15
C       5.19       6.88       2.76
N       4.01       8.94       6.89
N       3.97       4.83       6.89
N       4.01       6.89       8.95
N       3.97       6.88       4.83
F       1.74       6.88       6.88
F       6.24       6.89       6.89
F       0.00       8.09       5.68
F       0.00       5.68       8.09
F       7.98       8.09       8.09
F       0.00       5.68       5.68
F       6.37      11.66       6.88
F       1.61       2.12       6.89
F       6.37       6.88      11.66
F       1.61       6.89       2.12
