104

Zn       5.58       0.14      17.35
Zn       2.86       0.09      17.43
Zn       1.94       0.11       0.03
Zn       5.42       0.23      34.69
H       4.93       0.07       3.99
H       5.25       0.04       6.43
H       0.96      12.45       6.90
H       6.58      12.46      10.48
H       2.27       0.06      10.95
H       2.59       0.10      13.39
H       2.24      12.50       8.84
H       5.30      12.51       8.54
H       5.46       0.24      30.71
H       5.69       0.18      28.27
H       1.37       0.19      27.94
H       6.89       0.15      24.19
H       2.58       0.13      23.85
H       2.82       0.15      21.40
H       2.59       0.16      25.95
H       5.67       0.14      26.16
H       1.39       4.65      17.57
H       6.90       4.78      34.55
H       6.84       8.37      15.16
H       0.69       8.33       2.21
C       3.51       2.62      17.37
C       4.73       0.08      14.84
C       3.73      10.11      17.43
C       4.91       0.17      19.89
C       4.77       2.76      34.74
C       2.79       0.05       2.53
C       4.58      10.26      34.70
C       3.37       0.29      32.23
C       2.81      12.54       4.03
C       4.07       0.04       4.65
C       4.25      12.54       6.02
C       3.12      12.51       6.87
C       1.85      12.48       6.27
C       1.69      12.49       4.88
C       3.20      12.51       8.32
C       4.34      12.51       9.06
C       5.69      12.50      11.11
C       4.42      12.52      10.51
C       3.30      12.56      11.36
C       3.46      12.58      12.73
C       4.73      12.56      13.35
C       5.85      12.51      12.50
C       3.32       0.26      30.74
C       4.57       0.23      30.08
C       4.69       0.20      28.71
C       3.54       0.18      27.90
C       2.28       0.20      28.54
C       2.17       0.24      29.93
C       3.57       0.16      26.44
C       4.69       0.14      25.68
C       5.98       0.15      23.58
C       4.73       0.14      24.22
C       3.58       0.14      23.41
C       3.70       0.15      22.03
C       4.95       0.17      21.38
C       6.10       0.16      22.19
C       4.76       7.74      17.32
C       2.43       4.96      17.48
C       3.70       8.64      17.43
C       3.49       4.09      17.38
C       2.89       6.30      17.46
C       4.30       6.40      17.34
C       2.78       7.70       0.06
C       5.87       5.10      34.64
C       4.61       8.78      34.69
C       4.80       4.23      34.73
C       5.41       6.44      34.66
C       3.24       6.36       0.04
S       2.16       7.86      17.55
S       5.05       4.86      17.25
S       6.14       7.99      34.57
S       2.48       4.82       0.12
S       6.49       8.08      17.24
S       1.05       8.05       0.14
Br       7.74      12.42       4.27
Br       7.65      12.42      13.11
Br       8.24       0.25      30.60
Br       7.88       0.17      21.52
O       4.66       2.07      17.31
O       2.39       1.97      17.42
O       3.61      12.56      15.43
O       5.86       0.15      15.45
O       2.57      10.70      17.47
O       4.85      10.69      17.37
O       6.01       0.22      19.22
O       3.76       0.12      19.34
O       2.86       2.04       0.05
O       5.89       2.11      34.69
O       3.92       0.02       1.95
O       1.65       0.13       1.93
O       5.74      10.84      34.65
O       2.70      10.66       0.01
O       2.27       0.35      32.90
O       4.53       0.25      32.77
O       6.65       8.98      15.90
O       6.91       8.89      18.33
O       7.12       6.81      16.96
O       0.88       8.95       1.47
O       1.40       9.04      33.78
O       0.42       6.77       0.40
