78

Zn       4.32       5.23       8.26
Zn       1.61       5.49       7.65
H       5.05       3.33       0.92
H      -0.76       6.47       6.62
H       2.88       2.09       0.46
H       1.45       3.14       0.44
H      -1.38       1.35      15.15
H      -0.84       3.51      13.98
H       0.57       2.45      14.01
H       4.04       7.85      15.26
H       2.66       8.80      15.83
H       7.18       9.39       0.78
H       5.52       7.98       2.10
H       0.93       7.28      15.00
H       6.99       7.10       1.71
H       9.06       7.05       0.44
H       0.10       8.47       0.15
H       6.21       7.31      14.68
H      -1.35       6.69      14.53
H      -2.36       5.26      14.74
H       1.23       5.45       1.21
H       1.82       7.10       1.31
H       6.20       3.61      13.41
H       6.46       2.78      14.96
H       1.36       9.74       7.96
H       5.87       1.87      13.56
H       3.96       2.33      15.11
H       3.73       3.19      13.59
H       4.66       5.28      14.63
H       7.81       4.88       0.30
H       4.49       0.96       8.31
H       4.42       9.82       8.40
H       1.46       0.90       7.75
H       6.91       6.17       7.07
H      -0.98       4.53       8.81
H       6.69       4.25       9.27
C       2.59       2.78       7.90
C       1.19       6.30      15.41
C       0.71       4.13      15.31
C       5.26       6.49       0.60
C       2.10       5.21      11.93
C       3.84       5.48       3.99
C       2.83       4.81      15.61
C       3.15       5.81       0.31
C       1.70       5.10      14.53
C       4.27       5.51       1.39
C       1.89       5.15      13.13
C       3.31       7.94       8.14
C       4.07       5.49       2.79
C       2.46       1.30       7.93
C       3.42       9.41       8.24
C      -0.10       3.05      14.66
C      -0.80       2.13      15.66
C       6.09       7.56       1.26
C       6.49       8.68       0.30
C       1.75       6.23       0.63
C      -2.01       6.17      15.25
C      -3.19       7.07      15.58
C       3.52       0.49       8.14
C       4.24       4.47      15.25
C       4.36       3.15      14.49
C       5.80       2.83      14.08
C       2.34      10.22       8.11
C      -1.31       5.24       8.03
C       7.24       5.47       7.85
C       2.38       5.27      10.52
C       3.54       5.44       5.40
C       4.79       4.31       0.51
N      -0.40       5.82       7.33
N       6.33       4.90       8.56
O       3.74       3.27       8.11
O       2.16       7.44       7.91
O       1.52       3.44       7.64
O       4.40       7.28       8.28
O       3.62       5.25      10.19
O       2.31       5.52       5.72
O       1.39       5.34       9.72
O       4.54       5.33       6.19
