132

Al       5.01       9.74      19.30
Al       1.67      18.99       6.44
Al       1.65       9.79      19.24
Al       5.02      18.99       6.40
H       2.08      15.61       4.16
H       5.29      11.71      23.21
H       5.44      22.37       8.68
H       1.93       7.81      15.33
H       2.10      13.68       2.57
H       5.43      13.48      24.92
H       5.46      24.30      10.27
H       2.08       6.04      13.61
H       4.71      14.52       1.55
H       1.30      15.76      22.33
H       1.36      23.47      11.30
H       4.66       3.76      16.21
H       4.67      16.35       3.24
H       1.33      13.89      20.72
H       1.31      21.64       9.60
H       4.68       5.63      17.81
H       4.86      15.39      25.56
H       2.04      13.25       0.27
H       1.50       4.14      12.97
H       5.39      24.73      12.57
H       2.09      15.15      11.87
H       4.49      13.65      13.85
H       5.45      22.83       0.98
H       1.13       5.87      24.69
H       2.08      13.66      13.87
H       4.50      15.15      11.84
H       5.44       5.87      24.66
H       1.14      22.84       1.00
H       4.84      12.38       2.88
H       3.29      17.30      24.59
H       1.49       2.00       9.96
H       6.65      25.83      13.94
H       3.35      11.48      19.51
H       3.36      17.36       7.02
H       6.71       8.04      19.03
H       0.00      20.63       5.83
C       3.31       8.34      21.23
C       3.33      20.37       4.43
C       6.66      11.18      17.30
C       6.69      17.61       8.41
C       3.32       7.96      17.66
C       3.35      20.81       8.02
C       6.67      11.56      20.88
C       6.71      17.17       4.82
C       1.19      15.35       3.59
C       5.91      12.59      23.04
C       4.55      22.63       9.26
C       2.56       6.94      15.50
C       1.21      14.29       2.69
C       5.99      13.59      23.99
C       4.56      23.69      10.16
C       2.63       5.93      14.54
C       0.05      13.95       1.96
C       0.05      14.75      23.78
C       3.41      24.03      10.89
C       3.41       4.78      14.76
C       5.60      14.72       2.15
C       0.74      14.86      22.56
C       2.24      23.26      10.69
C       4.10       4.67      15.98
C       5.57      15.76       3.08
C       0.74      13.82      21.64
C       2.22      22.22       9.77
C       4.10       5.71      16.90
C       0.02      16.08       3.80
C       6.68      12.67      21.87
C       3.37      21.90       9.04
C       3.32       6.85      16.66
C       5.71      11.89       0.92
C       1.24      16.66      24.99
C       2.35       2.48      11.92
C       4.60       2.86      13.55
C       5.74      16.03      25.64
C       1.17      12.59       0.19
C       2.38       3.49      12.89
C       4.53      25.39      12.65
C       0.12      15.81      24.80
C       0.07      12.82       1.02
C       3.47       3.71      13.74
C       3.43      25.17      11.82
C       1.15      13.99      13.42
C       5.43      14.82      12.30
C       4.51       5.54      25.11
C       2.08      23.17       0.55
C       6.64      13.56      13.99
C       6.65      15.25      11.73
C       3.29       5.97      24.55
C       3.30      22.74       1.12
C       5.43      13.99      13.41
C       1.15      14.82      12.31
C       2.07       5.54      25.13
C       4.51      23.16       0.54
C       6.64      12.72      15.12
C       6.66      16.08      10.59
C       3.28       6.81      23.41
C       3.30      21.90       2.26
C       6.67      16.79       9.60
C       6.63      12.00      16.11
C       3.31      21.19       3.25
C       3.28       7.52      22.42
C       4.61      11.89       1.91
C       2.62      16.41      24.49
C       1.25       2.49      10.94
C       5.97       3.11      14.05
O       2.18       8.45      17.97
O       4.48      20.41       7.59
O       5.54      11.07      20.56
O       1.12      17.57       5.26
O       4.46       8.64      20.80
O       2.20      20.06       4.93
O       1.11      10.88      17.74
O       5.56      17.92       7.91
O       4.45       8.33      18.12
O       2.21      20.38       7.66
O       1.09      11.20      20.41
O       5.56      17.60       5.18
O       5.53      10.86      17.80
O       1.12      17.93       7.96
O       2.18       8.66      20.74
O       4.48      20.05       4.89
O       3.34      10.56      19.21
O       3.35      18.19       6.53
O       6.69       8.96      19.33
O       6.70      19.79       6.32
O       3.52      11.36       1.73
O       3.06      15.35      24.09
O       0.16       3.02      11.12
O       6.42       4.18      14.45
