156

Zn       4.49       6.40       8.80
Zn       1.94       2.63       8.79
Zn       1.97       5.39      10.59
Zn       4.48       3.69       6.98
H       6.91       5.48      10.76
H      -5.33       8.33       6.90
H       3.59       0.79      10.95
H      12.77       7.02       5.00
H      14.60       4.86       4.93
H      13.13       3.58       7.00
H       7.84      -2.79      12.93
H       6.51      -5.03      11.79
H      10.27      -3.69      11.77
H       9.73      -2.11       9.48
H       8.39      -4.33       8.30
H      -0.22       3.51       6.56
H       2.53       6.03       2.48
H      -0.28       4.53      12.89
H      -2.54       3.79      13.67
H      -1.14      -0.17      12.72
H      -3.96      -0.81      16.46
H       1.76      10.91       2.82
H      -3.88       2.87      15.51
H       2.02       9.59       4.86
H       2.34       7.36       0.45
H      -2.47      -1.09      14.57
H       0.77       8.41      11.61
H       5.23       3.38      14.81
H       7.79       3.68       6.05
H       4.32      -0.97       3.62
H       0.16      -0.94       4.74
H      12.47      14.53       1.07
H     -10.55       6.34      14.95
H      -3.75      15.80       1.81
H       8.00       6.02      12.83
H     -10.38       6.13      17.31
H       6.41       3.73      16.94
H       4.32       1.42       4.50
H      -7.90      15.80       2.96
H      -0.27       0.86      10.61
H       7.74       7.20       8.57
H       6.87       2.33       8.57
H       3.56       4.18      13.19
H       2.92       8.40       6.74
H      -3.84       4.45       8.92
H      -4.84       3.78      10.96
H      -5.96       3.20       9.69
H      -6.30       4.71      10.56
H       0.96       0.06       6.87
H       5.13      -2.61       9.68
H       4.14      -4.20       8.21
H      -2.87      13.21       9.62
H      -1.89      13.27       8.13
H      -2.89       2.62      17.18
H       3.07      11.58       1.29
H       4.07       9.70       9.12
H       2.87       4.77       4.36
H      -0.05       7.16       8.89
H      -6.78       7.07       9.00
C       5.94       5.22      11.19
C       3.33       9.15       9.70
C       2.97       5.55       5.11
C       4.24       1.33      10.26
C       0.11       6.19       8.43
C       2.69       6.93       5.03
C      -0.68       5.53       7.47
C       2.23       9.65      10.42
C       2.54       0.26       5.27
C      -5.41       5.38       8.06
C      -6.41       6.58       8.09
C       5.61       1.12      10.00
C       9.79       5.60       7.17
C      -1.99       5.86       7.06
C      13.43       4.63       6.98
C      -0.13       3.72      12.18
C      12.42       5.85       7.03
C      14.22       5.34       5.84
C      -4.60       6.07       6.88
C      13.23       6.55       5.87
C      -5.62       7.28       6.93
C      11.01       5.72       7.11
C      -0.73       2.45      12.13
C      -3.18       6.06       6.89
C       7.21      -4.37      11.27
C       7.96      -3.15      11.90
C       6.42       0.04      10.39
C       7.54       4.52       6.69
C       1.80      10.99      10.52
C       6.92      -3.50       9.96
C       7.66      -2.27      10.63
C       8.27      -3.98       9.33
C       8.56      -4.86      10.61
C       8.39       5.48       7.27
C       9.02      -2.77       9.98
C       9.31      -3.62      11.26
C       7.08      -0.97      10.58
C       1.44      12.15      10.58
C       2.34       7.71       3.84
C      -0.11       1.84      11.03
C       2.35       7.11       2.57
C       2.24       7.86       1.41
C       2.07       9.26       1.45
C       1.95       9.84       2.73
C       2.99       7.40       6.33
C       2.09       9.09       3.90
C      -3.22       2.20      14.95
C      -2.49       2.72      13.89
C      -1.74       0.50      13.33
C      -2.48      -0.01      14.38
C      -3.18       0.83      15.28
C       7.51       6.32       7.98
C       2.18      10.08       0.23
C      -3.67       0.24      16.52
C      -1.67       1.89      13.10
C       0.02       4.32       7.23
C       6.48       4.73      13.67
C       6.09       4.05      14.84
C       6.75       4.25      16.04
C       7.85       5.13      16.13
C       8.33       5.69      14.92
C       7.65       5.50      13.73
C      -4.56      16.16       2.44
C       5.92       2.12       9.05
C       3.29      -1.29       3.45
C       0.98      -1.30       4.11
C       1.65       8.49      10.97
C      -6.87      16.14       3.10
C      -5.87      15.72       2.20
C     -11.34       5.61      17.39
C      -6.27      14.96       1.03
C       2.27      -0.79       4.29
C       4.24       4.53      12.42
C       5.63       4.75      12.48
C      -5.49       4.10      10.14
C       5.03      -4.49       8.79
C       3.54       1.25       5.24
C       1.82       0.57       6.43
N       4.82       5.29      10.44
N       0.77       3.86      11.19
N       6.26       4.77       7.04
N       0.78       2.69      10.47
N       6.25       5.88       7.84
N       4.81       2.82       8.76
N       3.78       4.86      11.20
N       3.44       6.38       7.09
N      -4.72       4.89       9.19
N       5.74      -3.30       9.22
N       2.50      11.42       0.46
N       1.11       4.28       8.02
N       2.35       7.40      10.61
N       3.41       2.08       6.29
N       2.34       1.65       7.04
N       3.40       7.81       9.82
N       3.42       5.25       6.34
N       1.16       5.43       8.75
N       3.78       2.34       9.50
