96

Cu       0.24      12.26       4.00
Cu       6.13       8.38      12.26
Cu       4.16       0.12       8.38
Cu       2.20       4.00       0.13
H       1.48      11.16       1.15
H       7.36      11.23      11.16
H       5.40       1.22      11.23
H       3.43       1.15       1.22
H       1.13       9.53       0.58
H       7.00      11.80       9.53
H       5.05       2.86      11.80
H       3.08       0.58       2.85
H       1.50       8.64       2.91
H       7.38       9.47       8.64
H       5.43       3.75       9.47
H       3.46       2.91       3.75
H       2.94       9.47       2.21
H       0.97      10.18       9.48
H       6.87       2.91      10.18
H       4.89       2.20       2.91
H       3.83      10.37       4.49
H       1.86       7.90      10.37
H       7.76       2.02       7.89
H       5.79       4.48       2.01
H       2.73       9.00       4.85
H       0.77       7.53       9.00
H       6.66       3.38       7.53
H       4.69       4.85       3.38
H       1.34      10.37       6.31
H       7.23       6.07      10.38
H       5.27       2.01       6.07
H       3.31       6.31       2.01
H       3.04      10.39       6.85
H       1.08       5.53      10.39
H       6.96       1.99       5.53
H       5.00       6.85       1.99
C       7.47      10.37       1.82
C       5.50      10.56      10.37
C       3.55       2.01      10.57
C       1.58       1.82       2.01
C       1.06      10.19       1.45
C       6.93      10.93      10.19
C       4.98       2.20      10.93
C       3.01       1.45       2.19
C       1.91       9.61       2.58
C       7.79       9.81       9.61
C       5.84       2.78       9.81
C       3.86       2.58       2.78
C       2.79      10.10       4.75
C       0.83       7.64      10.10
C       6.72       2.29       7.64
C       4.75       4.74       2.29
C       2.35      10.73       6.06
C       0.39       6.32      10.74
C       6.28       1.65       6.32
C       4.32       6.06       1.65
C       2.34      12.22       6.04
C       0.38       6.35      12.23
C       6.27       0.16       6.34
C       4.31       6.04       0.16
N       7.01      11.17       2.79
N       5.04       9.59      11.18
N       3.09       1.21       9.60
N       1.11       2.79       1.20
N       5.66      11.09       2.80
N       3.69       9.58      11.09
N       1.74       1.29       9.58
N       7.62       2.80       1.29
N       5.30      10.26       1.86
N       3.33      10.51      10.26
N       1.37       2.12      10.52
N       7.25       1.87       2.13
N       6.41       9.79       1.24
N       4.44      11.14       9.79
N       2.49       2.59      11.15
N       0.51       1.25       2.60
N       1.60       0.60       5.22
N       7.48       7.16       0.60
N       5.52      11.78       7.16
N       3.56       5.22      11.78
N       1.85       1.90       5.51
N       7.74       6.87       1.90
N       5.78      10.48       6.87
N       3.81       5.51      10.48
N       2.73       1.94       6.48
N       0.76       5.91       1.94
N       6.65      10.44       5.90
N       4.69       6.48      10.44
N       3.05       0.66       6.83
N       1.09       5.56       0.67
N       6.98      11.72       5.56
N       5.01       6.82      11.72
O       1.92      10.52       3.69
O       7.80       8.69      10.52
O       5.84       1.86       8.70
O       3.87       3.69       1.86
