96

V       4.91       8.94       4.39
V       5.23       2.85      13.16
V       1.85       3.25      13.16
V       1.53       9.34       4.39
H       1.63       0.22       1.72
H       5.33       9.34       0.62
H       6.36      10.67       1.14
H       6.21      10.30      16.96
H       1.75       6.32      15.83
H       4.81       3.25      16.93
H       3.79       4.58      16.41
H       3.93       4.21       0.60
H       5.13      11.96      10.50
H       1.43       2.84       9.39
H       0.41       1.51       9.92
H       0.55       1.88       8.18
H       5.02       5.87       7.05
H       1.95       8.93       8.16
H       2.98       7.60       7.63
H       2.83       7.97       9.37
H       5.13      11.96      15.83
H       1.43       2.84      16.93
H       0.41       1.51      16.41
H       0.55       1.88       0.60
H       5.02       5.87       1.72
H       1.95       8.93       0.62
H       2.98       7.60       1.14
H       2.83       7.97      16.96
H       1.63       0.22       7.05
H       5.33       9.34       8.16
H       6.36      10.67       7.63
H       6.21      10.30       9.37
H       1.75       6.32      10.50
H       4.81       3.25       9.39
H       3.79       4.58       9.92
H       3.93       4.21       8.18
C       3.47      11.45       1.19
C       4.50      11.30       0.22
C       2.40       0.14       0.95
C       3.45      10.68       2.46
C       5.66      10.36       0.35
C       6.67       5.36      16.36
C       5.65       5.21      17.33
C       0.98       6.23      16.60
C       6.69       4.59      15.09
C       4.48       4.26      17.20
C       3.29       0.73       9.96
C       2.27       0.89       9.00
C       4.37      12.05       9.72
C       3.31       1.50      11.24
C       1.10       1.83       9.13
C       0.09       6.82       7.59
C       1.12       6.98       8.56
C       5.78       5.96       7.83
C       0.07       7.59       6.32
C       2.28       7.92       8.42
C       3.29       0.73      16.36
C       2.27       0.89      17.33
C       4.37      12.05      16.60
C       3.31       1.50      15.09
C       1.10       1.83      17.20
C       0.09       6.82       1.19
C       1.12       6.98       0.22
C       5.78       5.96       0.95
C       0.07       7.59       2.46
C       2.28       7.92       0.35
C       3.48      11.45       7.59
C       4.50      11.30       8.56
C       2.40       0.14       7.83
C       3.45      10.68       6.32
C       5.66      10.36       8.42
C       6.67       5.36       9.96
C       5.65       5.21       9.00
C       0.98       6.23       9.72
C       6.69       4.59      11.24
C       4.48       4.26       9.13
O       4.56      10.25       2.94
O       2.31      10.49       3.00
O       5.59       4.16      14.61
O       1.07       4.40      14.56
O       2.20       1.93      11.71
O       4.46       1.69      11.77
O       1.18       8.02       5.84
O       5.69       7.79       5.78
O       2.20       1.93      14.61
O       4.46       1.69      14.56
O       1.18       8.02       2.94
O       5.69       7.79       3.00
O       4.56      10.25       5.84
O       2.31      10.49       5.78
O       5.59       4.16      11.71
O       1.07       4.40      11.77
O       3.36       8.37       4.39
O       0.02       2.28      13.16
O       3.40       3.81      13.16
O       6.74       9.90       4.39
