91

Al       5.21      17.51      10.15
H       3.28      15.38      13.61
H       3.40      13.30      14.94
H       2.02      11.54      15.62
H       2.99      32.81      16.87
H       3.10      19.77       3.92
H       4.38      19.31       2.07
H       5.43      30.92      19.89
H       4.19      31.33      18.13
H       3.11      15.57       6.57
H       3.18      15.46       4.10
H       1.85      15.82       2.24
H       2.89      27.44      20.07
H       3.33      21.78      15.19
H       4.89      23.44      15.67
H       5.04      25.57      16.88
H       3.93      27.03      18.15
H       3.35      21.56      10.23
H       3.67      23.74      11.36
H       2.48      25.33      12.63
H       2.61      27.45      13.86
H       3.06      10.98      11.31
H       4.39       9.59      12.59
H       5.36      30.86      13.84
H       3.95      29.17      14.42
H       5.18      18.31      14.02
H       5.16      13.79       8.89
H       5.23      20.46       7.57
C       3.08      15.67      10.97
C       3.08      19.14      11.32
C       3.07      17.72       8.14
C       3.26      14.41      13.11
C       3.32      13.24      13.85
C       2.54      10.66      15.24
C       2.46       9.47      15.94
C       3.15      18.90       5.87
C       3.17      18.84       4.48
C       3.77      18.55       1.57
C       3.70      18.54       0.19
C       3.17      14.37      11.71
C       3.26      11.98      13.23
C       3.22      10.73      14.01
C       4.16      31.67      15.45
C       4.07      30.40      16.19
C       4.11      30.38      17.59
C       3.14      16.49       5.98
C       3.17      16.43       4.59
C       2.41      16.57       1.67
C       2.32      16.56       0.28
C       3.24      20.52      13.46
C       3.40      21.75      14.10
C       4.38      24.31      15.28
C       4.45      25.52      15.96
C       3.14      17.72       6.65
C       3.18      17.61       3.82
C       3.13      17.57       2.34
C       4.15      29.18      19.79
C       4.07      29.18      18.31
C       3.97      27.98      17.60
C       3.37      21.61      11.32
C       3.54      22.84      11.96
C       3.07      25.38      13.55
C       3.14      26.58      14.24
C       3.13      13.11      11.08
C       3.17      11.94      11.83
C       3.82       9.55      13.52
C       3.74       8.36      14.23
C       3.22      20.44      12.06
C       3.56      22.93      13.36
C       3.68      24.22      14.06
C       3.83      26.68      15.47
C       3.92      27.96      16.20
C       3.97      29.18      15.51
S       2.83      19.14      14.52
S       2.80      12.91       9.34
S       2.86      20.52       6.58
O       4.06      18.23       8.77
O       4.05      15.96      10.20
O       4.04      18.31      11.45
O       2.05      17.15       8.64
O       2.04      19.01      10.60
O       2.05      16.37      11.22
O       4.00      18.28      14.74
O       2.20      19.65      15.69
O       1.89      18.30      13.62
O       3.98      13.14       8.52
O       2.15      11.65       9.16
O       1.88      14.12       9.04
O       4.06      21.09       7.17
O       2.21      21.31       5.58
O       1.95      20.18       7.79
