102

Zn       7.67       8.57       8.79
Zn      10.57       8.70       8.63
H      10.87      12.47      10.17
H       6.79      13.02       9.00
H      11.21      17.09      10.53
H       8.21      17.34       9.89
H       6.97      15.46       9.48
H      10.90       2.16      10.92
H       7.15       1.96       8.81
H      11.07      14.89      10.72
H       7.41      10.60      15.06
H      10.93       8.45       1.94
H       7.49      10.02      12.63
H       7.37       4.34       8.20
H      10.87       8.11       4.42
H      11.43       8.40      13.12
H       6.96       9.86       4.58
H      11.34       8.89      15.57
H       7.01      10.23       2.11
H       4.76       8.60      12.68
H       5.92       7.40      14.53
H       7.33       5.41      14.04
H       7.59       4.62      11.68
H       6.48       5.85       9.84
H       3.13       9.78       7.09
H      11.73       9.83       5.89
H      10.56      11.65       4.69
H      10.74      14.00       5.52
H      12.13      14.51       7.52
H      13.34      12.68       8.69
H      15.16       7.12       9.79
H       5.60       9.34       7.11
H      12.69       7.09       9.40
H       2.93       7.90      10.97
H      15.24      11.01       7.91
H      11.13       4.55      10.24
C       8.89       8.75       6.13
C       7.82       9.56       3.99
C      10.50       9.15      14.92
C       7.85       9.77       2.62
C       9.36       9.76      15.48
C       8.97       9.35       1.86
C       9.29       9.95      16.88
C       8.99       9.45       0.45
C       3.60       9.29       7.94
C      14.67       7.96       9.31
C       4.96       9.04       7.94
C       9.48       8.80      11.29
C      13.30       7.94       9.09
C       4.87       8.02      10.04
C      13.33      10.04       8.07
C       8.77      11.18       9.07
C       9.35       6.05       8.83
C       3.49       8.25      10.11
C      14.71      10.14       8.27
C       2.83       8.88       9.04
C      15.41       9.08       8.88
C       1.42       9.04       9.05
C       8.28      10.11      14.63
C      16.82       9.10       9.00
C       8.84      12.61       9.50
C       9.26       4.60       9.18
C      10.03      13.14      10.03
C       8.13       3.86       8.80
C      10.13      14.49      10.33
C       8.01       2.53       9.17
C       9.05      15.37      10.08
C       8.99       1.88       9.94
C       7.83      14.81       9.65
C      10.07       8.77       2.53
C      10.12       2.64      10.32
C       7.72      13.45       9.36
C      10.26       3.97       9.94
C       9.15      16.82      10.11
C       8.91       0.46      10.25
C       5.54       7.30      11.14
C       5.37       7.71      12.47
C       6.02       7.04      13.51
C       6.82       5.93      13.23
C       6.97       5.49      11.91
C       8.33       9.79      13.28
C       6.34       6.18      10.87
C      12.61      11.13       7.37
C      11.83      10.85       6.24
C      11.17      11.88       5.57
C      11.27      13.20       6.03
C      12.06      13.49       7.15
C      12.74      12.46       7.81
C      10.03       8.58       3.90
C       9.45       9.15      12.74
C       8.91       8.96       4.65
C      10.55       8.86      13.56
N       5.59       8.42       8.96
N      12.64       8.95       8.48
O       7.77       8.87       6.73
O      10.62       8.71      10.72
O      10.01       8.48       6.68
O       8.35       8.63      10.73
O       7.63      10.64       8.96
O      10.49       6.62       8.88
O       9.89      10.62       8.83
O       8.25       6.62       8.51
