128

Zr      14.11      -1.10       8.20
Zr      18.66      11.13       5.43
Zr      10.58      -1.06       8.28
Zr      22.19      11.08       5.37
Zr      12.30      -0.11       5.32
Zr      20.47      10.14       8.32
H      12.37       1.10       7.90
H      20.40      12.07       3.41
H      17.68      10.62       8.05
H      23.26      10.54       7.93
H      18.44       5.88       8.50
H      14.55       4.02       4.94
H      10.06       1.45       1.47
H      22.50       8.73      12.33
H      24.62      -1.87      12.16
H       8.37      12.01       1.68
H      24.39       2.74       8.45
H       8.15       7.13       5.01
H      14.65       1.59      11.33
H      18.12       8.92       1.95
H      14.14      11.11       5.05
H      18.63      -0.73       8.35
H      25.51       3.52      12.57
H      16.78       8.05       0.41
H      10.11       0.58      11.40
H      25.85       1.50      12.76
H      15.44       4.15      13.41
H      16.00       2.81      12.60
H      22.67       8.58       2.88
H       6.93       7.55       1.61
C      14.64       1.70       6.63
C       9.96      -0.85       3.20
C      18.26       8.25       6.88
C      22.68      10.96      10.54
C      12.46       0.49      10.48
C      24.95      12.20       6.68
C      20.32       9.42       3.25
C       7.82      -1.98       6.83
C      10.02       1.74       6.74
C      18.33      11.03      10.62
C      22.62       8.19       6.79
C      14.58      -0.94       3.13
C      17.75       5.87       7.66
C      15.25       4.03       5.77
C      17.59       6.95       6.81
C      15.39       2.96       6.63
C      16.12       5.09       6.14
C      16.91       4.80       7.28
C       9.35       0.66       1.22
C      23.20       9.52      12.59
C       9.21      -0.48       2.00
C      23.36      10.65      11.80
C      15.87      13.73       0.04
C       8.49       0.61       0.10
C       8.50      -2.84      12.52
C      24.52      12.99       1.32
C       9.45      -3.61      11.87
C      15.37      -0.55       1.95
C       8.60      13.67       0.19
C      24.44      -3.51      13.66
C       8.25       3.37       7.61
C      24.27       6.50       5.84
C       9.23       2.98       6.71
C      23.32       6.90       6.75
C       8.33       5.21       6.14
C      24.17       4.64       7.29
C      11.41       1.81      12.37
C      13.82       1.88      11.97
C      14.03       2.70      13.05
C       4.75       7.27       0.19
C      21.37       8.00       1.43
C      18.96       8.39       1.48
C      18.74       7.60       0.38
C      28.02       2.78      13.43
C      12.54       1.38      11.63
C      20.24       8.58       2.05
C      13.73      11.72       5.84
C      19.04      -1.32       7.53
C       6.36      -1.92       6.76
C      18.24      -2.01       6.64
C      20.41      -1.51       7.24
C      12.36      11.95       6.11
S      16.43       6.68       5.54
S      16.58       3.22       7.88
S      16.20      12.69       1.38
S      16.35      -2.51      12.43
S      17.93       9.16      12.65
S      15.08       0.99       1.19
S       9.51       4.16       5.46
S      23.01       5.71       7.99
S      21.90      -1.01       7.95
S      10.87      11.41       5.43
N      25.58       3.29      13.57
N      10.18       1.28      12.13
N      15.37       3.13      13.33
N       6.17       8.09       1.99
O      14.93       0.88       7.57
O      17.84      12.31       3.72
O      17.93       9.10       5.98
O      14.84      -2.22       9.99
O      11.30       0.12      10.04
O      24.37      11.49       5.79
O      21.48       9.74       3.73
O       8.40      -1.34       7.77
O      10.87       1.57       5.81
O      19.15      10.17      10.15
O      21.80       8.39       7.75
O      13.73      -0.09       3.57
O       9.86      -2.13      10.10
O      22.91       9.02       5.86
O      22.98      12.19       3.61
O       9.79       0.95       7.72
O      13.56       0.13       9.92
O      16.56      11.58       5.94
O      19.22       9.84       3.76
O      16.21      -1.45       7.63
O      21.85      10.11      10.08
O      13.75       1.54       5.73
O      10.85      -0.03       3.62
O      19.10       8.44       7.83
O      22.46      10.99       7.62
O      18.48      11.05       7.71
O      20.42      12.11       4.38
O      12.35       0.19       7.57
O      10.84      -1.27       6.23
O      13.76      -1.32       6.16
O      20.43      10.45       6.27
O      12.34      -2.11       8.61
