53

Al       2.99      -4.40       7.99
H       1.25      -2.27      14.18
H       1.00      -0.13       3.02
H      -1.09       7.06       6.54
H       2.26       1.90       6.61
H       0.54      -2.20       4.37
H      -0.75       9.22       7.78
H       0.38       8.93       2.95
H       0.67      -6.54      14.21
H       1.22      -2.30      11.67
C       1.02      -4.44      10.05
C       1.06      -2.60       6.98
C       0.26      11.49       6.89
C       1.13      -3.20      13.63
C       0.96      -4.40      14.34
C       1.17      -0.15       4.09
C       1.66       1.01       4.73
C      -0.37       7.86       4.68
C      -0.68       7.94       6.05
C       1.90       1.00       6.11
C       1.69      -0.16       6.83
C       1.20      -1.33       6.22
C       0.92      -1.29       4.84
C      -0.48       9.12       6.73
C       0.08      10.24       6.09
C       0.41      10.13       4.73
C       0.16       8.97       4.01
C       0.81      -5.62      13.66
C       0.87      -5.61      12.28
C       1.01      -4.43      11.54
C       1.12      -3.22      12.24
C       3.10       5.54       1.92
C       2.28       3.24       1.93
C       0.93      -4.38      15.82
C      -0.65       6.61       3.94
C       2.61       4.43       4.04
C       1.96       2.23       3.97
N       2.66       4.40       2.63
N       2.30       3.24       0.60
N       3.16       5.49       0.59
N      -0.49       6.64       2.60
N       2.89       5.56       4.68
N       1.90       2.16       2.62
N       2.28       3.32       4.69
O       1.24      12.26       6.65
O       1.96      -5.07       9.47
O       1.95      -2.84       7.86
O      -0.62      11.68       7.80
O       0.10      -3.39       6.69
O       0.10      -3.77       9.47
F       0.01      10.83      11.61
F       0.92      11.20       4.07
F       1.93      -0.14       8.16
