196

Zn       2.14      13.71      15.14
Zn       4.84      13.80      15.15
Zn       5.09      13.72      30.30
Zn       2.38      13.81      30.29
Zn       5.18       1.26      15.14
Zn       2.47       1.23      15.14
Zn       2.07       1.28      30.29
Zn       4.77       1.24      30.30
H       1.33      13.95      22.06
H       5.90      13.94      23.38
H       2.01      13.64      26.40
H       1.62      13.63      23.99
H       5.23      13.62      19.04
H       5.61      13.63      21.45
H       1.35      13.96       8.22
H       5.93      13.94       6.92
H       2.04      13.77       3.88
H       1.64      13.77       6.29
H       5.24      13.69      11.26
H       5.63      13.72       8.85
H       1.36       5.96      15.13
H       1.52      20.28      15.15
H       5.74      22.46      15.14
H       1.32      24.69      15.15
H       1.41      22.24      15.15
H       5.95      18.06      15.15
H       5.85      20.51      15.15
H       5.87       5.98      30.29
H       5.75      20.36       0.20
H       1.56      22.55       0.23
H       5.93      24.69      30.10
H       5.82      22.23      30.08
H       1.28      18.08      30.15
H       1.39      20.54      30.11
H       5.95       1.19      22.07
H       1.36       1.19      23.35
H       5.22       1.28      26.42
H       5.64       1.25      24.02
H       2.07       1.25      19.02
H       1.66       1.24      21.42
H       5.94       1.04       8.21
H       1.35       1.04       6.92
H       5.22       1.34       3.87
H       5.63       1.29       6.27
H       2.06       1.30      11.26
H       1.66       1.28       8.86
C       3.92      16.29      15.15
C       2.98      13.75      17.67
C       4.06      11.24      15.14
C       2.99      13.76      12.62
C       3.34      16.38       0.00
C       4.25      13.76      27.77
C       3.16      11.26      30.29
C       4.28      13.83       2.52
C       3.36      26.46      15.15
C       4.33       1.24      17.66
C       3.33       3.77      15.14
C       4.31       1.23      12.62
C       3.91      26.47      30.28
C       2.96       1.27      27.76
C       3.95       3.86       0.01
C       2.97       1.29       2.52
C       3.09      13.76      19.15
C       4.14      13.77      26.29
C       2.03      13.84      20.06
C       2.22      13.86      21.44
C       5.21      13.84      25.38
C       5.02      13.86      24.00
C       2.85      13.70      25.72
C       2.64      13.70      24.35
C       4.38      13.69      19.72
C       4.59      13.70      21.09
C       3.51      13.79      21.99
C       3.72      13.79      23.45
C       3.10      13.79      11.14
C       4.17      13.84       4.01
C       2.04      13.86      10.23
C       2.23      13.89       8.85
C       5.24      13.89       4.92
C       5.04      13.90       6.29
C       2.88      13.81       4.57
C       2.67      13.81       5.93
C       4.39      13.75      10.58
C       4.61      13.77       9.21
C       3.53      13.84       8.30
C       3.75      13.85       6.84
C       4.96       8.78      15.15
C       2.42       6.20      15.13
C       4.00       9.77      15.14
C       3.42       5.23      15.14
C       2.99       7.49      15.14
C       4.40       7.49      15.15
C       3.83      17.77      15.15
C       3.45      24.97      15.15
C       2.60      18.46      15.15
C       2.52      19.84      15.15
C       4.67      24.28      15.15
C       4.75      22.90      15.15
C       2.29      24.18      15.15
C       2.35      22.79      15.15
C       4.98      18.57      15.15
C       4.92      19.96      15.15
C       3.68      20.63      15.15
C       3.58      22.11      15.15
C       2.31       8.87       0.01
C       4.81       6.22      30.29
C       3.22       9.79      30.29
C       3.86       5.33       0.01
C       4.23       7.51      30.29
C       2.87       7.57       0.01
C       3.44      17.86       0.01
C       3.86      25.06       0.00
C       4.67      18.54       0.10
C       4.75      19.93       0.11
C       2.63      24.37       0.11
C       2.55      22.99       0.12
C       4.97      24.18      30.19
C       4.89      22.80      30.18
C       2.25      18.59      30.22
C       2.32      19.98      30.21
C       3.60      20.72       0.00
C       3.70      22.20       0.00
C       4.21       1.23      19.15
C       3.08       1.25      26.28
C       5.27       1.21      20.07
C       5.07       1.20      21.44
C       2.03       1.23      25.35
C       2.24       1.21      23.98
C       4.38       1.26      25.73
C       4.61       1.24      24.36
C       2.91       1.24      19.70
C       2.69       1.23      21.07
C       3.77       1.21      21.98
C       3.54       1.22      23.45
C       4.20       1.20      11.13
C       3.09       1.24       4.00
C       5.26       1.13      10.21
C       5.05       1.11       8.84
C       2.03       1.15       4.92
C       2.23       1.11       6.29
C       4.38       1.28       4.56
C       4.60       1.25       5.92
C       2.90       1.24      10.57
C       2.68       1.23       9.21
C       3.76       1.16       8.30
C       3.53       1.17       6.83
S       2.40       9.11      15.12
S       5.04       5.89      15.15
S       4.83       9.12      30.27
S       2.24       5.98       0.02
Br       6.80       9.10      15.17
Br       0.47       9.18       0.04
O       2.83      15.64      15.15
O       5.10      15.75      15.15
O       4.10      13.76      17.05
O       1.83      13.72      17.09
O       5.19      11.85      15.15
O       2.91      11.81      15.14
O       1.83      13.73      13.19
O       4.10      13.77      13.24
O       4.39      15.65      30.29
O       2.12      15.77      30.30
O       3.13      13.78      28.39
O       5.40      13.73      28.35
O       2.03      11.87      30.29
O       4.31      11.82      30.29
O       5.44      13.80       1.95
O       3.17      13.85       1.90
O       4.46      27.09      15.14
O       2.19      27.01      15.15
O       3.22       1.26      17.04
O       5.48       1.25      17.10
O       2.18       3.19      15.14
O       4.46       3.17      15.14
O       5.47       1.24      13.18
O       3.20       1.25      13.24
O       2.81      27.11      30.25
O       5.08      27.01      30.29
O       4.06       1.28      28.39
O       1.80       1.28      28.32
O       5.10       3.28       0.02
O       2.82       3.26       0.01
O       1.81       1.30       1.95
O       4.08       1.31       1.89
F       0.74      13.92      19.62
F       6.49      13.92      25.82
F       0.75      13.91      10.66
F       6.53      13.93       4.48
F       1.41      17.81      15.15
F       5.86      24.93      15.14
F       5.85      17.88       0.20
F       1.45      25.03       0.23
F       6.56       1.20      19.64
F       0.74       1.22      25.78
F       6.54       1.08      10.65
F       0.74       1.10       4.49
