95

Zn       6.75       7.39       8.50
Zn       4.13       6.75      10.26
Zn       4.16       9.17       8.14
Zn       5.85       9.39      10.87
H      -3.48      10.67      12.04
H      -1.64       5.54       6.12
H       5.82       8.88      15.09
H       5.35       8.48      17.53
H       8.85       8.49       2.21
H       8.32       8.04       4.63
H       2.37       6.54      14.04
H       4.84       9.88       1.58
H       1.82       6.27      16.49
H       4.33       9.53       4.02
H       5.13       2.68      10.95
H      -0.33       8.54       9.86
H       5.82       0.26      10.90
H       4.03      15.76      11.92
H       4.75      13.35      11.77
H       7.43       3.42       7.39
H       2.66      15.61       7.85
H       8.00       0.97       7.27
H       3.30      13.18       7.73
H      13.93       5.99       6.55
H      12.09      11.06      12.52
H       9.68      10.58      12.07
H      10.77       7.84       8.97
H      -1.73       9.54      10.79
H      12.17       7.07       7.85
C       4.45       7.88      12.98
C      10.47      10.09      11.50
C      11.10       8.54       9.74
C      12.47       8.79       9.96
C      12.82       9.71      10.99
C      13.51       8.14       9.19
C      -3.07       8.39       9.50
C      -2.76       9.32      10.55
C      -3.75       9.96      11.26
C      13.21       7.26       8.11
C      14.19       6.65       7.38
C       5.98       8.55       5.90
C      -2.37       6.85       7.68
C      -2.02       7.72       8.76
C      -1.36       6.20       6.94
C      -0.03       6.40       7.25
C      -0.65       7.89       9.04
C       6.29       8.75       4.46
C       5.31       9.28       3.60
C       5.59       9.48       2.26
C       6.87       9.19       1.76
C       7.86       8.69       2.62
C       5.92       4.64       9.26
C       7.57       8.45       3.96
C       4.71       8.08      16.76
C       4.96       8.29      15.41
C       3.58       7.33      17.14
C       4.13       7.72      14.43
C       3.00       6.98      14.82
C       2.71       6.82      16.16
C       4.07      13.13       9.74
C       3.47      13.76       8.63
C       3.12      15.10       8.70
C       4.45      11.69       9.65
C       3.33      15.82       9.89
C       3.90      15.18      11.01
C       4.29      13.85      10.92
C       6.15       0.96      10.14
C       5.78       2.30      10.16
C       6.97       0.49       9.09
C       6.26       3.19       9.19
C       7.07       2.72       8.14
C       7.40       1.37       8.08
C       1.78       7.49       8.65
C       8.68       8.86      10.21
C      10.11       9.17      10.48
C       0.34       7.25       8.31
C      11.80      10.35      11.74
N       7.25       9.39       0.41
N       3.22       7.06      18.48
N       2.98      17.18      10.05
N       7.40      -0.84       8.96
Cl       1.20       5.60       6.33
O       5.22       8.17       9.46
O       6.62       5.43       8.53
O       5.11      11.20      10.63
O       3.86       7.08      12.18
O       4.88       9.04       6.33
O       5.29       8.79      12.66
O       6.84       7.90       6.60
O       4.98       4.99      10.05
O       4.07      11.07       8.60
O       2.31       6.71       9.49
O       7.81       9.50      10.90
O       2.32       8.48       8.06
O       8.43       7.99       9.31
