60

Al       5.81       5.89       8.33
Al       9.16       5.92       8.41
H       4.10       6.66       6.81
H       7.46       5.22       9.95
H       9.00       5.32      12.45
H       8.94       5.40      14.94
H       6.30       6.88      14.93
H       5.78       6.15       1.58
H       3.04       4.54       2.06
H       2.82       4.80       4.54
H       9.37       8.92      10.25
H       6.21       3.21       9.89
H       2.38       1.69       7.42
H       5.53       9.86       7.51
C       7.43       8.33       8.52
C       7.52       5.75       5.96
C       4.16       3.48       8.35
C       4.19       6.03      10.78
C       4.29       6.08      12.27
C       3.16       5.68      13.00
C       9.83       5.72      14.38
C       4.26       6.18      15.08
C       5.42       6.53      14.38
C       5.45       6.48      12.98
C       6.59       5.86       2.24
C       7.77       5.34       1.68
C       2.14       4.95       2.51
C       2.01       5.10       3.88
C       7.55       5.64       4.47
C       6.49       6.04       3.62
C       7.36       9.83       8.62
C       8.34      10.60       9.31
C       6.30      10.47       7.99
C       9.33      10.01      10.14
C      10.20      10.79      10.85
C       4.20       1.98       8.50
C       3.21       1.20       7.94
C       5.25       1.36       9.24
C       6.20       2.13       9.97
C       7.15       1.52      10.75
N       4.31       6.32      16.48
N       7.75       5.23       0.27
N       4.36      10.12      11.84
N       8.18       2.38      11.34
Cl       6.93       6.94      12.23
Cl       5.05       6.82       4.17
O       6.31       7.74       8.45
O       8.65       5.75       6.56
O       3.02       4.04       8.44
O       5.26       5.84      10.13
O       5.27       4.05       8.13
O       3.03       6.14      10.25
O       8.58       7.79       8.45
O       6.39       5.82       6.53
O       4.12       6.47       7.76
O       7.49       5.35       8.99
O       4.94       9.09      11.46
O       4.40      10.60      12.97
O       7.84       3.53      11.66
O       2.63       1.93      11.43
