146

Zn       9.08       8.53      10.88
Zn       9.10      10.90       8.74
Zn       6.74      10.67      10.81
Zn       6.94       8.50       8.47
H       9.02       4.46      11.58
H      13.27       7.93      10.82
H      13.05      11.96       9.38
H      -1.75      11.14      10.10
H      15.75       8.06      10.81
H       2.95       7.33       9.62
H      17.67       8.11       9.67
H       0.07      11.33       9.41
H       7.14      14.63      12.14
H       9.20      -0.05      11.43
H       7.92       1.92       7.45
H      10.56      10.54       4.87
H       8.26      17.55       8.30
H       7.54       4.39       7.55
H       6.93      19.33       8.40
H       9.39       2.02      11.51
H       5.18      18.49      12.01
H       4.67      16.87      12.52
H       5.05      18.10      13.74
H       6.93      16.46      13.54
H       7.45      18.07      13.08
H      10.16      12.89      13.02
H       6.81       8.53       4.27
H      10.37      13.74      14.56
H      11.68      12.71      13.93
H      10.44      11.52      15.78
H      10.26      10.67      14.25
H       8.03      11.80      13.89
H       8.20      12.60      15.44
H       5.26       7.95      13.12
H       5.14       6.18      13.15
H       4.49       7.14      14.50
H       7.46       6.83      13.73
H      10.48       9.74       0.27
H       6.69       6.08      15.12
H       9.10      13.62       0.39
H       7.86      14.37      18.44
H       6.15      14.42      18.95
H       6.40      12.89      16.97
H       5.91      11.97      18.39
H       8.29      11.35      18.82
H       8.79      12.21      17.38
H       1.15      12.83       7.91
H       0.92      13.30       9.61
H       6.33       7.27      17.16
H       2.21      14.05       8.65
H       3.17      12.32      10.19
H       3.48      11.97       8.51
H       0.02       3.96       9.01
H      17.87       4.69       9.15
H      -0.94       4.28       7.55
H      -0.77       6.76       7.96
H       0.82       6.05       7.78
H       1.11       5.98      10.25
H      -0.51       6.61      10.49
H      11.03      10.39       2.43
H      16.73      13.39       7.53
H      15.51      12.18       7.08
H      17.07      11.66       7.76
H      14.92      13.30       9.25
H      16.46      12.82       9.94
H       5.79       8.77      19.21
H       8.47      15.08       8.09
H       7.24       8.41       1.83
C       8.37       9.67       6.18
C       8.86       0.34       9.39
C       7.36      18.95      10.43
C       7.70       9.44      13.30
C       7.79      14.71      10.10
C       7.53       9.35      14.79
C       7.86      10.47      15.57
C       7.67      10.41      16.97
C       7.11       9.24      17.54
C       6.77       8.16      16.71
C       7.00       8.18      15.33
C       8.67       1.78       9.48
C      10.10       9.99       2.83
C       9.84      10.07       4.19
C       7.72       8.95       3.85
C      11.53       9.85      10.04
C       7.97       8.88       2.49
C       9.16       9.42       1.94
C       6.81       9.10      18.97
C       9.45       9.47       0.52
C       8.64       9.56       4.72
C       2.89       9.47       9.50
C       8.16       2.48       8.36
C       2.09      10.63       9.44
C       0.71      10.45       9.51
C       0.10       9.19       9.67
C       0.91       8.04       9.71
C       4.38       9.53       9.49
C       2.30       8.21       9.60
C      15.16       8.91      10.47
C      13.77       8.83      10.49
C      13.66      11.11       9.69
C      15.05      11.22       9.68
C       7.94       3.85       8.41
C      15.82      10.08      10.05
C      -1.36       9.10       9.79
C      17.27      10.15      10.00
C      13.01       9.93      10.08
C       7.86      13.23       9.97
C       8.09       6.05       9.62
C       8.26       4.57       9.57
C       8.77       3.89      10.68
C       8.97       2.52      10.64
C       6.80      17.23      12.78
C       7.98      16.91       9.13
C       5.34      17.70      12.76
C       8.47      11.69      14.90
C      10.00      11.60      14.77
C      10.59      12.80      14.03
C       6.67       6.97      14.48
C       5.31       7.07      13.77
C       7.96      11.64      17.81
C       6.74      12.56      17.96
C       7.03      13.77      18.85
C       2.67      12.02       9.25
C       8.12      15.53       9.01
C       1.68      13.10       8.83
C       0.35       6.64       9.80
C      -0.06       6.07       8.44
C      -0.68       4.67       8.54
C      15.68      12.51       9.23
C      16.29      12.43       7.82
C       7.38      15.29      11.30
C       7.27      16.67      11.45
C       7.54      17.50      10.33
O       7.96       9.62       9.70
O       8.46      12.75       8.94
O       7.49       6.61       8.64
O       7.31      12.54      10.90
O       8.58       6.65      10.64
O      10.99       8.80      10.52
O       5.01       8.60       8.88
O       9.19      10.37       6.86
O       6.76      10.02      12.67
O       7.33       9.06       6.62
O       8.75       8.92      12.79
O      10.90      10.84       9.52
O       4.92      10.51      10.11
