86

Zn       7.97      10.79       7.95
Zn       7.94       7.75       7.77
H      14.83      10.31       6.29
H      11.16       7.40      13.91
H       7.32      12.12      13.19
H       9.74       6.97       2.26
H       5.99       2.27       4.29
H       9.18      16.54      11.24
H       7.76      12.10      10.23
H       8.27       6.45       5.38
H       8.87      11.63       5.68
H       5.41       7.10       8.72
H       1.01       7.92       8.26
H       7.43       4.45       4.12
H       8.27      14.24      11.41
H       6.18      13.68      14.68
H      10.85       5.41       0.76
H       7.92      10.66      12.08
H       8.58       8.02       3.48
H       5.49      11.40       1.51
C       7.37       9.49       5.33
C       9.49       7.00       1.20
C       6.83      12.91      15.09
C      10.13       6.12       0.36
C       7.39       4.48       5.21
C       8.19      14.21      10.33
C       7.81       5.60       5.88
C       7.94      13.03       9.68
C       7.07       4.74       7.92
C       8.16      14.01       7.58
C       6.97       3.44       7.37
C       8.70       9.03      10.23
C       8.20      15.33       8.15
C       6.90       3.38       5.94
C       8.40      15.38       9.57
C      10.39       9.15       7.13
C       5.39       9.41       8.21
C       6.88       2.20       8.10
C       8.17      16.61       7.45
C       5.92       1.20       6.13
C       7.35       2.07       9.44
C       6.27       2.26       5.34
C       7.83       8.84       1.61
C       8.89      16.55      10.19
C       3.97       9.25       8.06
C      11.81       9.17       6.86
C       1.43       8.75       7.69
C      14.41       9.49       6.88
C      13.02       9.28       6.82
C       2.79       9.02       7.86
C       7.20       9.59       3.85
C       9.18       9.02      11.65
C       6.19      10.67       1.92
C       8.95      10.04      13.88
C      10.45       8.13      13.53
C       6.32      10.53       3.28
C      10.10       8.10      12.20
C       7.92       8.76       3.01
C       8.64       9.98      12.51
C       6.94       9.83       1.06
C       9.87       9.08      14.41
C       8.55       7.96       0.72
C       8.33      11.01      14.76
C       7.47      12.03      14.26
S       8.54      13.72       5.80
S       6.15       5.18       9.45
N       7.54       5.78       7.21
N       8.02      12.91       8.33
O       7.83      10.53       5.92
O       9.37      14.82       5.40
O       9.46      12.46       5.85
O       5.48       3.99       9.90
O       7.02       5.92      10.32
O       5.06       6.09       8.82
O       8.87       8.00       9.52
O       7.07       8.42       5.91
O       8.12      10.11       9.85
O       9.95      10.20       7.69
O       6.05       8.35       8.54
O       9.73       8.11       6.80
O       5.91      10.54       8.01
O       7.32      13.38       5.11
F       6.80      15.89       5.64
F       8.05       3.10       9.97
F      10.69       7.18      11.41
F       5.55      11.28       4.10
