54

Al       6.42       5.91       8.61
Al       3.10       5.87       8.64
H       4.79       5.21      10.23
H       8.12       7.36       7.66
H       6.66       4.70       4.75
H       6.82       4.50       2.27
H       2.92       6.31       1.93
H       9.79       7.58      15.24
H       6.14       5.51      12.61
H       5.95       5.61      15.09
H       6.20       1.79       7.45
H       3.69       1.86      10.86
H       4.60       1.87       9.33
H       7.89      10.01       9.34
H       6.97      10.02      10.87
C       8.02       3.50       8.59
C       8.12       6.21      11.04
C       4.79       8.31       8.55
C       4.69       5.64       6.24
C       4.70       5.56       4.74
C       5.84       5.03       4.12
C       5.93       4.92       2.74
C       4.87       5.38       1.93
C       3.73       5.93       2.54
C       3.64       6.02       3.93
C       4.95       5.33       0.51
C       7.82       6.60      16.76
C       7.88       6.57      15.35
C       8.99       7.11      14.67
C       9.08       7.05      13.28
C       8.06       6.44      12.52
C       6.94       5.95      13.21
C       6.83       6.01      14.59
C       8.07       2.02       8.53
C       4.75       9.80       8.51
C       2.47       1.29       9.10
C      10.36      10.56       7.91
C       5.76      10.57       9.09
C       7.04       1.28       7.92
C       3.77       1.39       9.87
C       7.06      10.48       9.87
Cl       8.88       6.79       4.58
Cl      10.47       7.82      12.58
O       6.90       4.07       8.38
O       9.25       6.26      10.47
O       3.69       7.69       8.39
O       5.80       5.91       6.79
O       5.93       7.78       8.74
O       3.59       5.43       6.84
O       9.12       4.09       8.86
O       7.01       5.94      10.46
O       4.77       5.37       9.27
O       8.09       6.46       8.03
F       9.34       9.93       7.26
