212

Zn       4.52       6.69       9.05
Zn       2.46       2.44       8.93
Zn       2.18       5.25      10.95
Zn       4.92       3.91       6.97
H       6.41       8.17      11.60
H      -0.88       1.60       9.38
H       0.69       8.25      11.84
H       4.08       2.14       4.27
H       0.54       1.74       6.73
H       3.01       9.23       8.32
H      -0.75       5.83      10.30
H       3.72      -0.69       9.27
H      12.25       4.83       8.98
H      13.85       2.47       8.91
H      12.22       1.34      10.96
H      10.22      -2.70      10.80
H       9.28      -4.63      12.64
H       2.18      14.17       8.80
H       7.70      -4.10       8.03
H      -1.44      12.83       9.88
H       6.62      -4.03      11.88
H       4.75       9.58       3.38
H       2.31       3.54      13.92
H       4.43       3.29      15.31
H       4.51      -0.54      13.34
H       9.42       8.06       2.57
H       4.88       2.20      17.46
H       8.15       7.21       4.52
H       7.95      10.68       0.21
H       6.03      10.48       1.46
H       4.94      -1.64      15.51
H       6.20       4.62      14.84
H       8.40       3.69       7.50
H       3.71      -0.05       3.59
H      -0.42       0.40       4.76
H       8.03       9.00      16.25
H      -5.15      17.12       1.94
H       6.99       8.77      14.02
H      -6.51      17.75       0.06
H       7.15       4.87      17.10
H      18.78      -1.38       3.17
H       4.65       1.24      11.10
H       6.57       5.15      11.13
H       7.16       1.75       8.31
H       4.24       4.91      13.45
H       5.51       4.72       1.22
H       4.63       3.42       2.03
H       3.77       4.53       0.95
H       3.31       5.15       3.35
H       4.21       6.44       2.54
H       6.35       5.49       3.48
H       5.42       4.27       4.35
H      -5.55       4.97      14.13
H      -6.18       6.12      16.23
H      -8.57       6.73      16.66
H       9.53       6.18      14.96
H      10.17       5.04      12.86
H      12.05       1.87      13.98
H      -7.03       0.71      16.04
H      -4.60       0.41      16.50
H      -2.93       1.29      14.87
H      -3.68       2.45      12.81
H      -5.78       8.97      11.88
H      -5.64       8.98      10.11
H      -7.15       9.52      10.89
H      -7.44       7.20       9.98
H      -7.56       7.19      11.74
H      -5.16       6.46      11.90
H      -5.03       6.45      10.14
H       7.79       6.87       0.04
H       8.61       4.56       0.44
H      11.06       4.12       0.61
H      12.67       6.00       0.33
H       7.20      -1.30      18.13
H      12.22      14.22       2.69
H      10.45      12.49       2.92
H       8.28      12.75       1.75
H       7.87      14.77       0.33
H       9.66      16.48       0.06
H       6.45       8.50       8.85
H       6.47      10.63      10.12
H       5.57      12.71       9.10
H       4.64      12.64       6.78
H       4.53      10.50       5.54
C       5.73       7.37      11.88
C       5.82       0.07       8.98
C       3.77       2.10      12.99
C       7.99       4.27       9.64
C       5.30       8.05       6.44
C      -0.61       2.63       9.56
C       1.31       8.25      10.95
C       3.31       2.18       5.03
C       1.49       1.99       6.27
C       2.49       8.75       9.14
C       5.22       6.27       5.10
C       4.41       0.08       8.94
C      -0.54       4.80      10.03
C       5.60       7.63       5.14
C      -1.42       3.70       9.99
C       1.73       9.34      10.17
C       2.10       1.46       5.12
C      -6.26       2.95      12.04
C      -7.17       4.26      12.08
C       9.20       3.98      10.31
C      -2.79       3.67      10.34
C      12.62       2.36      10.93
C       2.79       3.10      13.05
C      11.72       3.66      10.96
C      13.50       2.99       9.81
C      -5.36       3.59      10.89
C      12.65       4.29       9.85
C      -6.26       4.90      10.95
C      10.32       3.76      10.75
C      -3.96       3.62      10.69
C       8.92      -4.51      11.61
C       9.45      -3.45      10.59
C       6.66      -0.95       9.45
C       7.75       4.11       8.26
C       1.47      10.71      10.37
C       7.45      -4.20      11.19
C       7.97      -3.12      10.16
C       7.51      -5.29      10.08
C       0.80      13.24      10.50
C       8.06      -4.25       9.05
C       9.53      -4.55       9.48
C       7.33      -1.88       9.87
C       1.25      11.90      10.53
C       6.35       8.30       4.07
C       3.97       1.91      11.61
C       5.78       9.26       3.21
C       6.50       9.76       2.13
C       7.80       9.29       1.83
C       8.40       8.39       2.74
C       7.68       7.92       3.83
C       4.77       1.59      16.57
C       4.52       2.20      15.35
C       4.60       0.07      14.24
C       4.84      -0.55      15.47
C       4.82       0.19      16.67
C       6.80       4.85      10.12
C       8.38       9.74       0.58
C       4.60      -0.48      17.97
C       4.34       1.45      14.17
C       6.45       6.70      14.29
C       6.56       5.60      15.17
C       7.10       5.73      16.44
C       7.59       6.98      16.88
C       7.61       8.04      15.95
C       7.04       7.91      14.69
C       2.29      -1.28       2.55
C       6.17       1.34       8.46
C       2.65      -0.30       3.47
C       0.36      -0.08       4.16
C      -0.01      -1.09       3.26
C      -7.25      17.23       2.39
C     -11.85       7.31      18.24
C      -7.70      16.48       1.19
C       1.69       0.36       4.25
C       4.64       5.69      12.80
C       5.68       6.59      13.05
C       5.38       5.31       3.96
C       4.28       5.40       2.89
C       4.56       4.47       1.71
C      -7.56       4.94      13.33
C      -6.59       5.25      14.30
C      -6.95       5.90      15.49
C      -8.28       6.23      15.73
C      -9.26       5.92      14.78
C      10.93       5.28      13.59
C      -5.78       2.23      13.24
C      -6.72       1.73      14.17
C      -6.30       1.08      15.33
C      -4.93       0.92      15.59
C      -4.00       1.41      14.68
C      -4.42       2.06      13.52
C      -5.74       6.31      10.98
C      -6.86       7.36      10.90
C      -6.33       8.79      10.95
C       5.11      -1.85      18.19
C       8.86       6.67       0.10
C       9.32       5.38       0.33
C      10.70       5.13       0.42
C      11.60       6.18       0.26
C      11.14       7.48       0.02
C      11.06      15.46       1.34
C      11.27      14.34       2.16
C      10.27      13.36       2.29
C       9.05      13.51       1.63
C       8.83      14.64       0.84
C       9.83      15.61       0.69
C       5.45       9.34       7.12
C       6.01       9.40       8.41
C       6.05      10.60       9.12
C       5.55      11.77       8.54
C       5.02      11.73       7.24
C       4.97      10.53       6.54
N       4.79       6.94      11.02
N       0.65       3.07       9.40
N       1.79       7.11      10.43
N       3.40       3.04       6.05
N       2.29       2.93       6.85
N       2.53       7.41       9.31
N       4.71       5.91       6.30
N       0.70       4.41       9.68
N       3.98       1.25       8.45
N       2.43       3.47      11.81
N       6.54       4.57       7.95
N       3.17       2.74      10.91
N       5.94       5.05       9.10
N       5.06       2.04       8.15
N       4.11       5.90      11.59
N       4.78       6.99       7.12
