80

Al       0.00      12.29       0.00
Al       0.00      12.28      14.19
H       2.93      10.36       3.69
H       2.87      10.33       6.19
H       2.93      14.21      10.49
H       2.87      14.24       8.00
H       1.03      10.36      10.50
H       1.08      10.33       8.00
H       1.03      14.21       3.69
H       1.08      14.24       6.19
H       2.93      22.33      17.77
H       2.87      20.19      16.49
H       2.93      14.52      17.70
H       2.87      16.66      18.98
H       1.03      16.44      14.37
H       1.08      18.62      15.58
H       1.02      20.41      21.10
H       1.08      18.23      19.88
H       2.93      28.73      21.10
H       2.88      30.90      19.89
H       2.93      32.69      14.37
H       2.88      30.52      15.59
H       1.03      34.62      17.70
H       1.09      32.47      18.98
H       1.03      26.81      17.77
H       1.09      28.95      16.49
C       1.98      26.35      20.25
C       1.98      12.29       2.06
C       1.98      22.78      20.25
C       1.98      12.28      12.13
C       1.98      14.07      15.22
C       1.98      10.50      15.22
C       1.98      12.29       3.55
C       1.98      12.28      10.64
C       2.51      11.19       4.25
C       2.47      11.18       5.64
C       2.51      13.37       9.94
C       2.47      13.39       8.55
C       1.45      11.19       9.94
C       1.48      11.18       8.55
C       1.45      13.38       4.25
C       1.48      13.39       5.64
C       1.98      12.28       6.36
C       1.98      12.28       7.83
C       1.98      21.50      19.51
C       1.98      15.35      15.96
C       2.50      21.43      18.21
C       2.47      20.24      17.51
C       2.50      15.42      17.26
C       2.47      16.62      17.96
C       1.45      16.51      15.37
C       1.48      17.72      16.05
C       1.45      20.34      20.10
C       1.48      19.13      19.42
C       1.97      19.06      18.10
C       1.97      17.79      17.37
C       1.98      27.64      19.51
C       1.98       9.21      15.96
C       2.51      28.79      20.10
C       2.48      30.00      19.42
C       2.51      32.63      15.37
C       2.48      31.42      16.05
C       1.46      33.72      17.26
C       1.49      32.52      17.96
C       1.46      27.70      18.21
C       1.49      28.90      17.51
C       1.99      30.07      18.10
C       1.99      31.35      17.37
O       1.05      22.97      21.11
O       1.05      25.52      19.99
O       1.05      12.93       1.47
O       2.91      23.62      19.99
O       2.91      11.64       1.47
O       2.91      26.16      21.11
O       1.05      11.33      15.48
O       1.05      11.64      12.72
O       1.05      13.88      14.36
O       2.91      10.69      14.36
O       2.91      13.23      15.48
O       2.91      12.93      12.72
