180

Zn       8.33       0.98       1.95
Zn      -0.18       9.48      15.12
Zn       1.87      -8.23      15.38
Zn      11.30      -0.89       1.75
H       4.96       0.37       2.72
H       0.21      11.24       7.20
H      -1.77      14.67       7.66
H       1.19       6.55      14.25
H       6.04      -3.24       7.03
H       2.06      14.42       8.77
H       2.58      12.69       6.57
H       1.22      -0.69      15.61
H       9.43       9.50       2.21
H       5.10       0.30      15.34
H       2.70       1.31      14.22
H       1.00      10.73      12.42
H      -4.88       9.71      10.45
H      -4.49      10.45      12.37
H      11.75       6.43       6.69
H      10.52       4.72       5.37
H      15.48       5.03       5.03
H      -2.00       6.50       8.06
H      11.72      18.23       1.75
H      13.63      16.67       1.51
H      -3.43      15.33       2.13
H      -1.71      17.07       2.55
H       1.74      -4.85      15.00
H       4.24       7.73      14.54
H       6.12       6.10      14.33
H      -8.59       9.29      15.37
H      -1.30       7.57      12.94
H       1.15      17.62       2.11
H       6.07      15.27       1.62
H      -6.00       9.12      15.33
H       9.43       2.95       4.56
H      -4.72       9.71       6.21
H      13.23      11.03       5.21
H       9.11      17.78       2.13
H      11.10      11.37       6.48
H      10.85      10.36       8.75
H      -7.10       9.03       9.73
H      -1.22       5.20      10.44
H       1.04       4.66      11.34
H       2.68       6.48      11.79
H       2.06       8.85      11.29
H      -0.21       9.39      10.43
H       4.10      13.88       3.62
H       5.89      12.55       4.72
H       2.85      10.13      14.91
H       7.87      13.69       5.71
H       8.05      16.18       5.60
H      11.69      -1.86       4.54
H       9.74       5.59      14.07
H       8.74       5.73      11.81
H       7.73       7.87      11.02
H       7.74       9.87      12.51
H       8.74       9.72      14.78
H       9.98       3.84       1.96
H      12.99       1.70       2.42
H       3.15      -5.94      13.20
H      -1.25      12.94       5.47
C       5.29       0.21       1.70
C       9.38       3.78       1.06
C      12.00       1.85       2.84
C       0.79       6.59      15.25
C       3.93      -6.70      13.25
C      11.56       2.80       3.79
C      -0.60      12.30      12.23
C       9.11       4.80       0.12
C       9.62      18.47       0.05
C       0.30      12.33       7.15
C      -0.52      13.27       6.21
C       0.88       5.65      16.30
C       1.89      15.35       3.86
C      -0.49      12.72      10.89
C       1.61      13.12       6.83
C      -3.69       9.80      12.72
C       0.80      14.08       5.86
C       1.34      14.10       8.02
C       0.02      13.30       8.38
C       0.50      15.04       7.09
C      -0.80      14.24       7.40
C       1.31      14.63       4.66
C      -2.92       8.85      12.02
C      -0.32      12.95       9.71
C       2.00      -0.06      16.03
C       7.97      10.31       0.52
C       1.56       4.42      16.31
C       4.03      16.56       3.31
C       9.45       6.16       0.12
C       2.84       1.02      15.27
C       2.65       2.04      16.47
C       4.16       0.47      15.88
C       3.34      -0.64      16.66
C       2.64      16.31       3.16
C      10.09      10.85       0.37
C       9.28       9.78       1.16
C       2.16       3.36      16.38
C       9.60       7.37       0.03
C      12.28       3.86       4.47
C      -2.05       8.34      13.02
C      13.68       4.03       4.39
C      14.39       4.97       5.10
C      13.68       5.83       5.97
C      12.28       5.74       6.02
C      10.19       2.48       3.94
C      11.60       4.78       5.29
C      -4.63       8.58       8.67
C      -4.25       8.98       9.95
C      -3.85       7.57       8.04
C      -3.10       8.49      10.61
C      -2.21       7.68       9.87
C       2.17      17.41       2.42
C      -2.62       7.21       8.61
C      -1.96      18.02       0.61
C      -8.82       8.57      16.16
C       0.17      11.30      12.84
C      -9.81       7.62      15.91
C      -3.95      16.06       0.18
C      -3.24      16.11       1.39
C      -2.28      17.08       1.62
C      12.92      16.79       0.69
C      11.85      17.66       0.82
C       6.94       6.58      16.27
C       6.25      15.66       0.62
C       4.79       8.37      16.53
C       4.98       7.65      15.33
C       2.18      -5.26      15.90
C       6.02       6.73      15.22
C      -5.96       9.56      16.32
C      -0.76      18.85       0.66
C      -5.78       9.27       8.04
C      -5.65       9.85       6.76
C      13.10      10.59       6.20
C      11.91      10.78       6.91
C      11.77      10.22       8.18
C      -6.97       9.48       8.74
C      -0.87       7.33      10.38
C       8.86      18.32       1.21
C      -0.49       6.00      10.63
C       0.77       5.70      11.14
C       1.69       6.72      11.39
C       1.33       8.05      11.12
C       0.07       8.35      10.62
C       5.06      15.78       3.98
C       4.97      14.38       4.06
C       5.97      13.64       4.68
C       7.09      14.28       5.23
C       7.19      15.67       5.16
C       2.67       9.76      15.92
C       6.19      16.42       4.55
C       9.31       7.65      14.58
C       9.30       6.53      13.73
C       8.73       6.61      12.46
C       8.17       7.81      12.02
C       8.18       8.93      12.85
C       8.74       8.85      14.12
N       6.46       0.74       1.27
N      -4.28       6.77       6.96
N       8.98       5.46      16.64
N       0.08       7.65      15.68
N       7.80       5.45      16.22
N      -3.28       9.85      13.99
N       4.31      17.75       2.72
N      -2.26       8.96      14.20
N       8.62      -1.09       2.17
N       5.79      16.87       0.25
N       0.55      -9.07      16.70
N      -0.28      11.10      14.09
N       9.86       1.44       3.15
N       1.96      -6.52      16.27
N      13.09      -0.49       1.04
N       1.47      10.00      16.52
N       8.74       2.65       0.71
N      10.99       1.05       2.47
N       4.12      -7.43      14.36
N      14.24       6.72       6.89
F       6.81      10.54       1.22
F      11.09      11.60       0.92
F      14.40       3.19       3.57
