80

Al       6.39       7.17       7.99
Al       3.03       7.18       7.96
Al       2.45       0.08       0.01
Al       6.02       0.29      15.96
H       3.42      11.41      13.03
H       7.08      11.47      12.78
H       3.42       9.77      11.20
H       7.07      10.07      11.14
H       5.98      11.02       2.62
H       6.02       9.33       4.48
H       3.29      10.53       5.50
H       3.25      12.22       3.64
H       6.48       5.33      11.88
H       2.51       2.34      12.23
H       2.71       3.96      10.32
H       2.24       2.78       3.40
H       2.49       4.47       5.18
H       6.41       3.88       0.09
H       1.46       2.59       1.40
H       4.73       8.88       7.58
H       1.33       5.51       7.43
H       4.70      12.65      15.73
H       0.99       1.86      15.18
C       4.73       5.61       9.79
C       4.67       5.59       6.14
C       1.30       8.83       6.20
C       1.40       8.74       9.79
C       2.46      11.13      12.61
C       1.35      11.69      13.15
C       2.45      10.16      11.53
C       1.35       9.72      10.89
C       6.86      10.91       3.26
C       6.88       9.97       4.29
C       1.29       9.83       5.10
C       2.41      10.65       4.86
C       2.40      11.58       3.84
C       1.25      11.71       3.03
C       5.61       4.68      11.96
C       5.46       3.83      13.06
C       4.36       2.95      13.12
C       3.36       3.00      12.14
C       3.48       3.89      11.08
C       4.62       4.71      10.97
C       5.72       4.12       4.30
C       5.60       3.19       3.26
C       4.32       2.75       2.88
C       3.21       3.20       3.60
C       3.36       4.12       4.63
C       4.62       4.61       5.00
C       4.18       1.78       1.75
C       4.30       1.90      14.17
C       1.38      12.66      14.26
C       1.25      12.68       1.90
C       6.47       3.86      14.17
C       6.83       2.53       2.73
O       3.55       6.09       6.47
O       5.88       6.07       9.48
O       7.00       8.47       9.24
O       5.79       5.83       6.70
O       6.89       8.34       6.53
O       3.65       5.84       9.16
O       4.71       7.99       7.96
O       2.42       8.56       6.74
O       2.52       8.25       9.46
O       1.34       6.35       7.93
O       5.43       1.52      14.63
O       3.03       1.55       1.24
O       2.37      13.17       1.54
O       3.17       1.43      14.50
O       2.50      12.98      14.78
O       5.26       1.26       1.35
O       4.55      13.33       0.06
O       6.95      13.10      14.61
O       6.85      12.93       1.35
O       0.97       1.15      15.86
O       0.92       3.56      14.04
O       5.93       4.26      15.34
O       0.60       1.58       3.32
O       0.67       3.14       1.67
F       0.25       4.52       4.61
