314

Zn      12.21       6.39      10.11
Zn      13.75       9.20      10.20
Zn      10.56       9.08      10.22
Zn      12.17       8.27       7.56
Zn      21.55      15.45       1.95
Zn      29.02      21.79      18.42
Zn      30.48      19.04      18.42
Zn      27.26      18.92      18.35
Zn      21.19      17.04       8.95
Zn      19.65      14.23       8.87
Zn      22.84      14.35       8.84
Zn      21.23      15.16      11.51
Zn      11.85       7.97      17.12
Zn       4.38       1.64       0.64
Zn       2.91       4.38       0.65
Zn       6.14       4.51       0.72
H      13.18       8.65       4.67
H      12.60       7.26       4.93
H       9.94       4.25      12.80
H      15.87      12.23       8.23
H      23.95       4.93      15.98
H      18.64      14.05       4.76
H      15.28       9.61       4.87
H      17.40      13.65       6.88
H      26.99      15.46      16.00
H      24.27      14.01       4.76
H       9.93      11.94      13.08
H      20.89      19.69       6.96
H      12.83       2.87       8.25
H       7.96      11.83       8.42
H      15.30      20.24      16.01
H      25.09      13.34       7.02
H      13.79       2.03       1.15
H      13.38       4.12       2.46
H      21.24      18.57       4.75
H      16.86      21.24      14.33
H      12.89       5.20       4.63
H       7.63      12.45       1.24
H      12.73      15.85      15.91
H       9.21      11.11       2.65
H       9.86      10.26       4.90
H      14.09      14.31      14.48
H      27.11      13.48      14.49
H      14.19      12.42      12.85
H      24.53       6.81      14.44
H      18.18      11.34       1.46
H      22.97      21.29      14.01
H       7.48       7.77      12.69
H      14.75       4.30      12.57
H      16.54       9.99       2.76
H      17.15       7.87      12.31
H      19.51       5.03      15.39
H      24.62      20.35      15.65
H      18.81       6.90      13.88
H      25.72      16.37      18.01
H      22.79      14.89      17.47
H      23.44      15.23      15.85
H      24.55      14.76      17.18
H      22.79      17.90      15.87
H      21.79      17.19      17.16
H      22.89      18.57      17.52
H      20.22      14.78      14.40
H      20.80      16.16      14.14
H      23.45      19.18       6.27
H      17.53      11.20      10.83
H       9.45      18.49       3.09
H      14.76       9.38      14.31
H      18.12      13.82      14.19
H      16.00       9.78      12.19
H       6.41       7.97       3.07
H       9.13       9.42      14.30
H      23.47      11.49       5.99
H      12.51       3.74      12.11
H      20.57      20.56      10.82
H      25.44      11.59      10.64
H      18.10       3.18       3.06
H       8.31      10.09      12.05
H      19.60      21.39      17.91
H      20.02      19.30      16.60
H      12.16       4.86      14.32
H      16.54       2.19       4.74
H      20.50      18.23      14.43
H      25.76      10.98      17.83
H      20.67       7.58       3.16
H      24.19      12.32      16.42
H      23.54      13.17      14.16
H      19.31       9.12       4.59
H       6.29       9.95       4.58
H      19.21      11.01       6.21
H       8.87      16.61       4.62
H      15.22      12.08      17.61
H      10.43       2.14       5.06
H      25.92      15.66       6.38
H      18.64      19.12       6.50
H      16.86      13.44      16.31
H      16.25      15.56       6.76
H      13.89      18.40       3.68
H       8.78       3.08       3.42
H      14.59      16.53       5.19
H       7.68       7.05       1.06
H      10.61       8.54       1.60
H       9.96       8.20       3.22
H       8.84       8.67       1.89
H      10.60       5.53       3.20
H      11.61       6.23       1.91
H      10.51       4.85       1.55
C      14.54      10.01       7.44
C      29.05      16.96      16.93
C      31.60      21.38      17.06
C       9.71       6.64      11.63
C       9.08       4.80      13.17
C      16.08      11.99       7.19
C      15.47      10.85       6.62
C      24.82       4.39      15.60
C      18.17      13.17       4.33
C      15.74      10.50       5.30
C      29.13      15.75      16.04
C       8.25       4.22      14.16
C      17.24      12.42       5.10
C       8.81       6.05      12.66
C      16.93      12.77       6.44
C       7.12       4.97      14.63
C      27.95      15.08      15.64
C      14.02      21.98      16.08
C       7.38      12.64       5.14
C      25.04      13.38       4.32
C      10.83      12.46      13.40
C      13.28       1.77       6.46
C      12.96       2.90       7.17
C      12.80       4.15       6.51
C      13.43       1.83       5.04
C       8.97      10.94       6.73
C      10.73      13.54      14.30
C       8.05      11.83       7.34
C      12.45       5.36       7.32
C      15.14      21.24      15.62
C       7.27      12.66       6.56
C      13.69       2.01       2.24
C      18.49      12.78       3.04
C      13.45       3.15       2.96
C      12.12      10.94      11.93
C       6.59      13.29       2.94
C      19.47      13.58       2.24
C       9.78      10.01       7.56
C      21.16      19.54       4.27
C      13.78       0.75       2.89
C      15.99      21.80      14.69
C      12.06      12.07      12.89
C      13.30       3.09       4.37
C      21.45      18.39       2.07
C      12.99       4.24       5.14
C      24.13      14.00       2.08
C       7.59      12.48       2.33
C      11.83      15.32      15.59
C       8.45      11.75       3.11
C      11.94      14.22      14.70
C       8.35      11.77       4.53
C      16.64      11.25       4.52
C       9.13      10.94       5.35
C      13.18      13.79      14.17
C      28.02      14.00      14.80
C      13.25      12.74      13.28
C       6.86       6.25      14.08
C      17.89      11.63       2.47
C      23.86      21.86      14.31
C      16.56       4.28      13.76
C      14.81       6.74      11.47
C       7.68       6.79      13.12
C      15.84       6.14      12.36
C      26.84      21.53      16.62
C      15.64       4.86      12.86
C      25.89      22.09      15.60
C      16.99      10.88       3.19
C      17.00       6.88      12.72
C      18.63       4.47      15.07
C      17.72       5.04      14.14
C      24.76      21.33      15.21
C      17.92       6.33      13.59
C      24.97      17.16      17.82
C      23.65      15.32      16.93
C      22.76      17.65      16.94
C      18.86      13.41      11.63
C       4.34       6.47       2.14
C       1.80       2.04       2.01
C      23.69      16.79       7.43
C      24.32      18.63       5.90
C      17.31      11.44      11.87
C      17.93      12.58      12.45
C       8.58      19.04       3.46
C      15.23      10.26      14.74
C      17.66      12.93      13.77
C       4.26       7.67       3.03
C      25.15      19.21       4.91
C      16.16      11.00      13.97
C      24.59      17.37       6.41
C      16.47      10.66      12.62
C      26.28      18.46       4.44
C       5.45       8.34       3.43
C      19.38       1.44       2.98
C      26.02      10.79      13.92
C       8.36      10.04      14.75
C      22.57      10.97       5.67
C      20.12      21.65      12.61
C      20.43      20.52      11.89
C      20.59      19.27      12.56
C      19.97      21.60      14.03
C      24.42      12.48      12.34
C      22.66       9.89       4.77
C      25.35      11.60      11.73
C      20.94      18.07      11.75
C      18.26       2.18       3.45
C      26.12      10.77      12.51
C      19.71      21.42      16.83
C      14.91      10.64      16.03
C      19.94      20.27      16.10
C      21.28      12.49       7.14
C      26.81      10.14      16.13
C      13.93       9.85      16.83
C      23.62      13.42      11.51
C      12.24       3.89      14.80
C      19.62      22.67      16.18
C      17.41       1.63       4.38
C      21.34      11.36       6.17
C      20.10      20.33      14.69
C      11.95       5.04      16.99
C      20.41      19.19      13.93
C       9.27       9.43      16.99
C      25.81      10.94      16.74
C      21.57       8.11       3.48
C      24.95      11.68      15.96
C      21.46       9.21       4.36
C      25.05      11.66      14.54
C      16.76      12.17      14.55
C      24.26      12.49      13.72
C      20.22       9.64       4.89
C       5.38       9.43       4.27
C      20.15      10.68       5.79
C      26.54      17.17       4.98
C      15.51      11.80      16.60
C       9.54       1.57       4.76
C      16.84      19.15       5.31
C      18.59      16.69       7.60
C      25.72      16.64       5.95
C      17.56      17.29       6.71
C       6.56       1.90       2.44
C      17.76      18.56       6.21
C       7.51       1.34       3.47
C      16.41      12.55      15.87
C      16.40      16.55       6.34
C      14.77      18.96       4.00
C      15.68      18.39       4.92
C       8.64       2.10       3.86
C      15.48      17.10       5.48
C       8.43       6.27       1.25
C       9.75       8.11       2.14
C      10.64       5.77       2.13
N      23.82      16.72      17.28
N       9.57       6.71       1.78
O      12.18       8.24       9.50
O      28.86      19.94      19.06
O      13.13      20.12      17.24
O       9.61      10.06       8.83
O      12.28       5.18       8.57
O      11.01      10.38      11.61
O      10.73       5.94      11.29
O      30.77      22.18      17.62
O      13.27      10.60      11.48
O      14.64      10.13       8.70
O      30.16      17.43      17.35
O      20.04      14.57       2.83
O      14.97       7.96      11.11
O      21.46      18.55       0.81
O      24.28      13.89       0.82
O      27.75      22.32      17.04
O      13.72       9.25       6.81
O      23.20      14.63       2.68
O      21.56      17.28       2.70
O      13.82       5.99      11.15
O       9.42       7.80      11.18
O      27.89      17.41      17.18
O      10.58       9.22       6.94
O      12.35       6.49       6.71
O      12.73       7.91       4.21
O      19.68      13.24       1.03
O      26.65      20.33      17.00
O      25.20      18.36      18.08
O      21.22      15.19       9.56
O       4.54       3.49       0.01
O      20.27       3.31       1.82
O      23.79      13.37      10.24
O      21.12      18.25      10.50
O      22.39      13.05       7.46
O      22.67      17.49       7.78
O       2.62       1.25       1.45
O      20.13      12.83       7.59
O      18.76      13.30      10.36
O       3.24       6.00       1.72
O      13.36       8.86      16.23
O      18.42      15.47       7.96
O      11.94       4.88      18.26
O       9.12       9.54      18.25
O       5.65       1.10       2.02
O      19.68      14.18      12.26
O      10.20       8.79      16.39
O      11.84       6.14      16.37
O      19.58      17.43       7.92
O      23.98      15.63       7.89
O       5.50       6.01       1.89
O      22.82      14.20      12.12
O      21.05      16.94      12.36
O      20.67      15.51      14.86
O      13.72      10.19      18.03
O       6.75       3.09       2.07
O       8.19       5.06       0.99
