101

Zn       6.70       6.56      11.52
Zn       3.81       6.37      11.73
H       6.91       7.68      18.37
H       6.73       2.60      11.54
H       9.48       8.08       8.76
H       8.50       5.92      13.35
H       2.64       8.40      10.19
H       8.43       2.87      21.63
H       1.96       4.46      11.72
H       2.88       8.89      21.04
H       2.38       6.89       2.04
H       6.84       8.25      14.68
H       4.70       3.72      14.49
H       4.77       3.92      18.25
H       3.40       3.68       4.45
H       7.82       2.87       2.58
H       3.28       5.21       8.76
H       6.63       8.37       7.98
H       6.77       6.59       3.54
H       3.78      11.62      14.97
H       6.37      10.56      10.31
H       2.08       1.37      12.93
C       4.82       3.80      11.70
C       4.64       6.50      20.45
C       6.44       6.86      17.81
C       5.72       6.00      14.18
C       6.44       6.92      16.41
C       5.82       5.90      15.68
C       5.24       4.80      16.34
C       5.24       4.76      17.74
C       5.82       5.80      18.46
C       4.22       4.81       5.77
C       4.20       5.24       7.12
C       7.18       3.35       0.88
C       5.19       6.13       7.56
C       6.15       6.68       6.67
C       6.13       6.29       5.33
C       4.97       8.93      12.14
C       5.16       5.35       4.89
C       4.46      11.29      12.88
C       4.89      10.40      11.95
C       3.95       1.60      12.56
C       4.94       2.39      12.05
C       9.62       7.23      10.84
C       7.56       4.51      22.88
C       0.90       7.21      10.91
C       5.27       6.38       9.03
C       4.10       5.69       2.73
C       6.09       4.19       2.93
C       6.14       4.10       1.49
C       5.18       4.77       0.69
C       4.15       5.53       1.29
C       7.04       7.76       7.14
C       4.19      10.84      14.28
C       5.31      10.80      10.56
C       6.60       5.18      22.11
C       9.00       8.10       9.76
C       1.56       8.44      10.38
C       8.71       3.74      22.26
C       2.50       8.05      21.66
C       7.05       8.12      15.76
C       4.63       3.67      15.60
C       5.54       5.91      22.70
C       4.57       6.59      21.92
C       3.54       7.32      22.49
C       3.19       6.20       0.49
C       6.74       5.15      20.63
N       5.10       5.04       3.49
N       5.73       5.81      19.90
N       8.79       6.71      11.69
N       1.70       6.24      11.27
O       5.91       4.40      11.39
O       6.42       6.52       9.56
O       4.17       6.40       9.68
O       3.24       6.39       3.31
O       8.07       2.69       1.61
O       3.23       4.71       7.90
O       8.14       8.03       6.67
O       6.99       6.87       4.45
O       4.44       9.71      14.67
O       4.53      11.27       9.75
O       2.70       2.11      12.84
O       6.89       3.60       3.69
O       6.19       1.85      11.86
O       7.98       8.73       9.97
O       9.32       6.15      12.81
O       0.88       9.43      10.12
O       9.87       4.03      22.51
O       1.15       5.04      11.54
O       1.31       7.79      21.74
O       2.23       6.94       1.04
O       7.72       8.94      16.38
O       4.10       2.70      16.14
O       7.67       4.60      20.05
O       3.29       3.91       5.40
O       3.80       7.02      19.71
O       3.67       4.38      11.74
O       6.82       5.96      13.51
O       4.57       6.14      13.70
O       6.11       8.39      12.18
O       3.84       8.33      12.02
