228

Al      15.08       6.43      13.42
Al      12.09       7.59      13.45
Al      14.33       9.56      13.47
Al      11.85       0.39      26.67
Al       1.13       1.04      26.65
Al       7.22      10.30      26.65
H      12.13       9.60       5.07
H      10.04       8.57      21.17
H      16.34      10.89      21.07
H      15.11       4.40      21.06
H      12.43      11.92      19.40
H       4.14       7.15      19.30
H      10.96       4.95      19.51
H       3.85       0.66      20.72
H       5.76       8.12      20.63
H      11.04       3.02      20.79
H       3.18       1.01      23.09
H      16.00       8.87       4.88
H       6.40       8.51      23.01
H      11.19       2.16      23.13
H       9.36       8.93      18.97
H      17.01      11.33      18.93
H      15.01       3.63      18.88
H      10.07       8.55      16.61
H      16.24      10.93      16.59
H      14.90       4.47      16.53
H       3.26       0.73       7.99
H       5.76       8.78       7.98
H      13.48       5.92       4.99
H      11.29       2.68       7.73
H      10.49       9.20       7.60
H      16.31      10.42       7.25
H      14.40       4.75       7.53
H       9.81       9.48       5.41
H      17.29      10.92       5.20
H      14.64       3.77       5.43
H       7.44       0.83       5.33
H       3.62       5.14       5.24
H       9.49       6.15       4.97
H       8.88      10.93       5.81
H      12.85       9.58       7.28
H      15.44       8.20       7.03
H      12.97       6.60       7.16
H       9.34       8.94      23.52
H      17.01      11.29      23.44
H      15.25       3.52      23.39
H      13.47      11.23       7.18
H      16.56       6.82       7.00
H      11.23       6.36       6.91
H       7.30       2.06       7.87
H      18.93      10.77       5.83
H       4.60       4.68       8.09
H       8.28       5.72       7.81
H       5.31       1.04       3.29
H       5.19       6.82       3.28
H      10.51       4.23       2.91
H       2.88       0.94       5.82
H       6.29       8.89       5.84
H      11.45       2.23       5.59
H       6.80      11.14       8.17
H      12.15       0.99       8.04
H      13.65       2.38       5.85
H       1.04       0.80       7.79
H      13.13      11.53      17.05
H      17.23       6.77      16.95
H      10.87       5.78      17.16
H       2.94       5.00      12.68
H       9.54       0.39      26.22
C      16.02       8.54      11.51
C      10.48      11.38       3.84
C      18.45       9.23       3.77
C      12.83       3.63       3.72
C      11.76      10.83       9.22
C      17.01       8.55       9.06
C      12.22       4.99       9.05
C      11.98      10.37      10.32
C      16.55       8.60      10.18
C      12.43       5.33      10.20
C      13.48       2.47       1.44
C      12.78       5.79      11.52
C       9.29      11.46       1.47
C      19.16      10.33       1.46
C      11.64      10.02      16.68
C      16.69       8.82      16.64
C      12.88       5.18      16.71
C      12.29      10.98      17.47
C      17.20       7.76      17.40
C      11.77       5.30      17.55
C      11.89      11.19      18.79
C      17.63       7.98      18.70
C      12.26       9.83      11.62
C      11.82       4.83      18.86
C      10.84      10.45      19.36
C      17.54       9.26      19.28
C      13.00       4.24      19.36
C      16.11       8.57      15.30
C      12.91       5.74      15.34
C      12.13       9.70      15.32
C      10.19       9.50      18.55
C      17.05      10.32      18.50
C      14.11       4.11      18.51
C       9.85      10.45       5.93
C      10.57       9.29      17.23
C      16.63      10.11      17.19
C      14.05       4.57      17.20
C      10.04       9.58      21.58
C      17.20      10.38      21.49
C      14.26       3.90      21.51
C       9.66       9.78      22.90
C      17.56      10.59      22.81
C      14.34       3.41      22.81
C       3.19       0.01      22.66
C      17.94      10.29       5.82
C       5.53       9.01      22.57
C      12.04       2.66      22.66
C      10.48      11.94      21.34
C       5.17       8.80      21.25
C      11.96       3.15      21.36
C      10.45      10.66      20.77
C      17.93       9.48      20.68
C      13.07       3.76      20.76
C       9.68      11.07      23.46
C      18.66       9.91      23.36
C      13.70       3.47       5.91
C      13.23       2.78      23.39
C      13.31       2.16      24.73
C       9.17      11.31      24.83
C      19.08      10.22      24.75
C      12.61      10.60       6.96
C      16.46       7.88       6.77
C      12.21       5.90       6.78
C       4.20       0.47       7.48
C       5.07       8.11       7.45
C      11.11       3.62       7.20
C      10.20      10.24       7.42
C       3.92       0.61       5.94
C       5.43       8.21       5.92
C      11.24       3.30       5.67
C       9.97      11.34       2.74
C      18.72       9.72       2.69
C      13.25       3.18       2.68
C      11.42      11.12       7.83
C      17.46       8.65       7.69
C      12.25       4.61       7.65
C      12.27      10.62       5.46
C      17.37      10.14       7.23
C      16.75       8.18       5.29
C      12.49       5.57       5.30
C      10.92      11.36       5.23
C      18.12       8.89       5.14
C      12.49       4.03       5.08
C      13.65       3.97       7.35
S      13.71      11.12       4.44
S       8.73      10.29       8.51
S      18.08      11.29       8.44
S      14.17       2.70       8.57
S      16.41       6.72       4.22
S      11.46       6.58       4.17
S       5.22       1.70       8.44
S       5.48       6.62       8.48
S       9.49       3.94       8.04
S       4.75       2.03       5.09
S       6.18       6.72       5.16
S       9.69       3.33       4.65
O      13.99       5.76      11.83
O      13.96       5.54      14.67
O      11.42       8.90      14.60
O      15.74       9.61      14.63
O      15.97       7.37      14.93
O      11.90       6.44      14.93
O      13.26      10.17      14.96
O      13.82       7.88      13.43
O      13.69      -0.15      26.68
O      12.46       1.96       0.92
O       2.48       0.45       0.88
O      11.64       8.76      11.95
O       6.20       9.68       0.80
O      18.41      11.08      25.40
O      14.43       2.28      25.39
O       8.70      10.30      25.48
O      12.30       1.52      25.14
O       2.25       0.37      25.27
O       6.29       9.63      25.19
O      14.46       9.92       4.21
O      13.26      11.89       3.29
O      14.61      12.00       5.37
O      15.48       9.60      11.98
O      15.02       6.80       3.88
O      17.39       6.64       3.16
O      16.53       5.46       5.16
O      12.13       7.84       4.03
O      11.14       5.81       2.98
O      10.14       6.92       4.97
O       4.97       3.02       7.91
O       4.89       1.42       9.81
O       6.71       1.28       8.16
O       6.69       6.00       8.01
O      18.68      11.46       1.18
O       5.43       7.09       9.83
O       4.28       5.62       8.21
O       8.47       3.13       7.40
O       9.73       3.73       9.43
O       9.26       5.46       7.71
O       3.89       3.15       5.33
O       6.15       2.07       5.44
O       4.63       1.74       3.55
O       7.56       6.79       5.52
O       5.37       5.56       5.47
O      14.69       2.39       1.01
O       6.13       6.97       3.61
O       9.07       2.06       4.86
O       8.96       4.55       4.90
O      10.18       3.31       3.16
O       8.11       8.99       8.39
O       9.03      10.86       9.79
O       7.73      11.34       7.74
O      17.12      11.65       9.42
O      19.38      10.76       8.89
O      11.53       0.38       7.49
O       8.61      10.46       1.07
O      14.92       3.32       9.61
O      13.01       1.87       8.93
O       1.27       1.79       7.68
O      16.10       7.41      12.08
O      11.80       6.23      12.25
O      13.13      10.44      12.33
O      16.18       5.08      13.43
O      10.17       0.91      26.72
