324

Zn       5.14       4.43       7.99
Zn      12.50      -0.92      17.68
Zn      -1.57       7.44      27.98
Zn       9.44       1.24      22.83
Zn       2.08       2.27       2.83
Zn       1.59      10.63      13.14
Zn      -2.15      10.08       6.85
Zn       5.22       9.06      26.85
Zn       5.71       0.69      16.54
Zn       2.15       6.89      21.70
Zn      -5.20      12.24      12.01
Zn       8.87       3.88       1.70
H       1.18       6.31      27.70
H       2.43       4.81      26.14
H      -1.20       4.42      23.83
H      -2.29       6.01      25.44
H       5.20       3.71      24.66
H       7.67       3.22      24.46
H       6.98       0.15      21.77
H       4.49       0.51      21.86
H       0.83      -0.54      18.41
H       2.18       0.59      20.15
H      -1.49       2.30      21.69
H      11.86       1.13      19.84
H       0.06      -2.96      17.02
H       2.17      -3.06      15.61
H       1.07       0.77      13.97
H      -0.99       0.71      15.44
H       5.66      -0.31       9.88
H       5.94       1.60       8.25
H       3.68       4.14      10.60
H       3.24       2.31      12.29
H      -2.05      13.73      15.12
H      -0.41      11.81      15.09
H       0.82      12.76      11.25
H      -0.76      14.71      11.13
H      -1.16       9.49      12.86
H      -2.42       8.00      11.30
H       1.21       7.62       8.98
H       2.30       9.21      10.60
H       9.38       6.90       9.81
H       6.91       6.41       9.61
H       7.60       3.34       6.92
H      10.09       3.70       7.01
H      -0.82       2.66       3.56
H      12.40       3.79       5.31
H       1.50       5.49       6.84
H       2.71       4.31       4.99
H      -0.06       0.22       2.18
H      12.40       0.13       0.77
H      -1.05      -2.43      28.82
H       1.00       3.90       0.60
H       8.92      -3.50      24.73
H       8.63      -1.60      23.09
H      10.90       0.95      25.45
H      11.35      -0.89      27.14
H       2.06      16.92       0.28
H       0.41      15.00       0.24
H      -0.81       9.56      26.09
H       0.78      11.52      25.97
H       8.46       1.83      16.83
H       9.71       3.32      18.39
H       6.08       3.71      20.70
H       4.99       2.12      19.09
H      -2.09       4.43      19.87
H       0.38       4.92      20.07
H      -0.31       7.98      22.76
H      -2.80       7.62      22.67
H       8.11       8.67      26.12
H      -5.11       7.53      24.37
H       5.79       5.83      22.84
H       4.58       7.01      24.70
H       7.35      11.10      27.51
H      -5.11      11.19      28.91
H       8.34      13.75       0.87
H       6.29       7.43      29.08
H      -1.63      14.82       4.95
H      -1.34      12.92       6.59
H      -3.61      10.38       4.24
H      -4.05      12.21       2.55
H       5.23      -5.60      29.41
H       6.88      -3.68      29.44
H       8.10       1.76       3.59
H       6.51      -0.20       3.71
H       6.12       5.02       1.98
H       4.86       6.51       3.54
H       8.49       6.90       5.86
H       9.58       5.31       4.24
H       2.10       7.62       5.03
H      -0.37       8.11       5.23
H       0.31      11.17       7.92
H       2.80      10.81       7.83
H       6.47      11.86      11.28
H       5.12      10.73       9.53
H       8.78       9.02       8.00
H      -4.57      10.20       9.85
H       7.23      14.29      12.67
H       5.12      14.38      14.07
H       6.22      10.55      15.71
H       8.28      10.61      14.24
H       1.63      11.63      19.80
H       1.35       9.73      21.44
H       3.61       7.18      19.08
H       4.05       9.02      17.39
H       9.35      -2.41      14.56
H       7.70      -0.49      14.60
H       6.47      -1.43      18.43
H       8.06      -3.39      18.55
C       0.69       5.87      26.83
C       1.38       5.03      25.97
C       0.71       4.49      24.87
C      -0.64       4.84      24.67
C      -1.25       5.70      25.56
C       1.38       3.57      23.92
C       3.20       2.43      23.23
C       1.23       2.17      22.15
C       4.66       2.14      23.27
C       5.56       2.90      24.02
C       6.92       2.63      23.92
C       6.53       0.91      22.42
C       5.16       1.11      22.46
C       0.34       0.10      19.15
C       1.10       0.73      20.13
C       0.44       1.53      21.07
C      -0.94       1.70      20.97
C      -1.62       1.04      19.94
C       0.34      -2.16      16.33
C       1.49      -2.21      15.56
C       1.77      -1.14      14.70
C       0.87      -0.07      14.64
C      -0.26      -0.10      15.44
C       2.99      -1.14      13.85
C       4.85      -2.18      13.10
C       4.19      -0.23      12.16
C       4.41       0.86      11.20
C       5.21       0.66      10.06
C       5.38       1.71       9.17
C       4.09       3.13      10.49
C       3.84       2.12      11.41
C      -1.51      14.38      13.13
C      -1.42      13.55      14.25
C      -0.52      12.49      14.24
C       0.17      13.02      12.09
C      -0.70      14.10      12.03
C      -0.67       9.06      11.99
C      -1.37       8.22      11.12
C      -0.69       7.69      10.02
C       0.65       8.03       9.82
C       1.26       8.89      10.72
C      -1.37       6.77       9.08
C      11.38       5.62       8.39
C      -1.22       5.36       7.30
C       9.92       5.33       8.42
C       9.02       6.09       9.18
C       7.66       5.82       9.07
C       8.05       4.10       7.57
C       9.41       4.30       7.62
C      -0.34       3.30       4.30
C      -1.09       3.92       5.28
C      -0.43       4.72       6.22
C       0.95       4.89       6.12
C       1.63       4.23       5.10
C      -0.33       1.02       1.49
C      13.08       0.98       0.71
C      12.81      -4.34      29.54
C      -0.85      -3.27      29.48
C       0.27       3.09       0.60
C      11.60      -4.34      28.69
C       9.74      -5.38      27.94
C      10.40      -3.43      27.01
C      10.17      -2.33      26.04
C       9.37      -2.53      24.91
C       9.20      -1.48      24.02
C      10.49      -0.06      25.33
C      10.74      -1.07      26.25
C       1.52      11.18      27.97
C       1.44      10.35      29.10
C       0.54       9.30      29.08
C      -0.15       9.82      26.92
C       0.72      10.90      26.86
C       7.97       2.26      17.70
C       8.66       3.10      18.56
C       7.99       3.64      19.66
C       6.64       3.29      19.86
C       6.03       2.43      18.97
C       8.66       4.56      20.61
C      -4.08       5.70      21.30
C       8.51       5.96      22.38
C      -2.63       5.99      21.26
C      -1.73       5.23      20.51
C      -0.37       5.50      20.62
C      -0.75       7.23      22.11
C      -2.12       7.02      22.07
C       7.63       8.03      25.38
C       8.38       7.40      24.40
C       7.73       6.60      23.46
C       6.34       6.44      23.56
C       5.66       7.09      24.59
C       7.62      10.30      28.20
C      -5.79      10.34      28.97
C      -5.52      15.66       0.14
C       8.15      14.59       0.20
C       7.03       8.23      29.08
C      -4.31      15.66       0.99
C      -2.44      16.70       1.74
C      -3.10      14.75       2.68
C      -2.88      13.65       3.64
C      -2.08      13.85       4.77
C      -1.91      12.80       5.67
C      -3.20      11.38       4.36
C      -3.45      12.39       3.43
C       5.77       0.14       1.71
C       5.85       0.97       0.59
C       6.76       2.03       0.60
C       7.44       1.50       2.76
C       6.58       0.42       2.82
C       6.61       5.45       2.86
C       5.91       6.29       3.72
C       6.59       6.83       4.82
C       7.93       6.49       5.02
C       8.54       5.62       4.12
C       5.91       7.75       5.76
C       4.09       8.89       6.45
C       6.07       9.15       7.54
C       2.64       9.18       6.42
C       1.74       8.42       5.66
C       0.37       8.69       5.77
C       0.76      10.42       7.27
C       2.13      10.21       7.22
C       6.95      11.22      10.54
C       6.20      10.60       9.56
C       6.85       9.79       8.62
C       8.24       9.63       8.72
C       8.92      10.28       9.74
C       6.96      13.49      13.36
C       5.80      13.53      14.13
C       5.52      12.46      14.99
C       6.42      11.39      15.05
C       7.55      11.42      14.24
C       4.31      12.47      15.84
C       2.44      13.50      16.58
C       3.10      11.56      17.52
C       2.88      10.46      18.48
C       2.09      10.66      19.62
C       1.92       9.61      20.51
C       3.21       8.19      19.20
C       3.45       9.20      18.28
C       8.80      -3.05      16.55
C       8.71      -2.22      15.43
C       7.81      -1.17      15.44
C       7.13      -1.69      17.60
C       7.99      -2.77      17.66
Br       3.88       6.30       8.71
Br       5.09       3.37       5.87
Br      10.93       0.51      16.63
Br      12.21      -3.01      18.71
Br      -3.50       8.25      26.85
Br      -1.47      12.78       0.41
Br      10.70       3.11      23.56
Br       9.48       0.18      20.72
Br       3.64       3.69       1.78
Br       2.35       0.18       3.88
Br       3.52      11.42      12.01
Br       1.45       9.59      15.25
Br      -3.41       8.22       6.13
Br      -2.19      11.14       8.97
Br       3.65       7.63      27.90
Br       4.95      11.15      25.81
Br       3.77      -0.10      17.67
Br       5.84       1.74      14.43
Br       3.41       5.03      20.97
Br       2.20       7.96      23.81
Br      -3.64      10.81      13.06
Br      -4.92      14.33      10.97
Br      10.80       3.07       2.84
Br       8.76      -1.46      29.28
N      -0.60       6.20      26.63
N       7.40       1.66      23.12
N      -0.99       0.25      19.06
N       2.68       3.30      24.11
N       2.51       1.80      22.27
N       0.62       3.07      22.93
N      -0.52      -1.12      16.28
N       0.26      12.23      13.18
N       4.83       2.93       9.38
N       3.11      -0.15      12.96
N       3.86      -2.15      14.01
N       5.06      -1.25      12.16
N       0.61       9.39      11.78
N       7.18       4.85       8.27
N       1.00       3.44       4.21
N      -2.67       6.49       9.27
N      -2.50       4.99       7.43
N      -0.61       6.26       8.09
N       0.52       2.06       1.44
N      -0.25       9.04      28.02
N       9.75      -0.27      24.23
N      11.47      -3.34      27.80
N      10.73      -5.35      28.85
N       9.53      -4.45      27.00
N       6.68       1.93      17.90
N       0.11       6.47      21.41
N       6.29       7.88      25.48
N       9.96       4.83      20.42
N       9.79       6.33      22.26
N       7.90       5.06      21.60
N       6.77       9.26      28.25
N       7.54       2.28       1.67
N      -2.45      11.59       5.46
N      -4.18      14.67       1.88
N      -3.43      16.67       0.84
N      -2.23      15.77       2.69
N       7.90       5.12       3.06
N      -0.11       9.67       6.56
N       8.29      11.08      10.63
N       4.61       8.03       5.57
N       4.78       9.52       7.41
N       6.67       8.25       6.75
N       7.81      12.44      13.41
N       7.03      -0.91      16.51
N       2.46       8.39      20.30
N       4.18      11.47      16.73
N       3.43      13.47      15.68
N       2.23      12.58      17.53
