102

Al       0.31       6.21       8.34
Al       3.66       6.13       8.40
Al       3.84      15.79       0.09
Al       1.01       0.00       0.02
H       3.74      12.31       2.38
H       1.06      13.64       3.37
H       2.83      10.23       3.42
H       1.32      11.76       4.99
H       3.09       8.35       5.05
H       0.42       9.67       6.02
H       4.10      10.43      10.79
H       2.82       9.59      13.20
H       4.10       7.05      12.91
H      -0.36       8.01      14.46
H       0.91       8.85      12.06
H      -0.36      11.40      12.35
H       1.45       0.81       4.58
H       4.74       2.92       3.77
H       3.21       5.33       3.91
H       1.21       4.08       2.27
H      -0.09       3.19       4.68
H       3.91      -1.67      13.09
H       3.43       2.27      10.47
H       2.01       7.74       9.04
H       5.37       4.45       8.79
H       1.75      10.69      16.25
H       5.54      -1.84      16.36
C       1.95       4.65       6.53
C       1.99       4.51      10.16
C       5.34       7.70      10.25
C       5.21       7.81       6.62
C       5.69      13.07       2.79
C       5.10       8.91       5.62
C       3.75      10.11       4.00
C       3.89       9.07       4.88
C       6.14       9.81       5.45
C       6.01      10.91       4.57
C       4.79      11.07       3.83
C       4.65      12.17       2.95
C       0.26      12.92       3.53
C       0.40      11.87       4.41
C       3.87       9.42      12.94
C       4.58       9.90      11.62
C       5.30       8.51      11.48
C       4.57       8.03      12.81
C       5.80       8.55      13.63
C      -0.14       9.03      12.32
C       5.80      10.42      12.45
C       5.08       9.94      13.78
C       2.95       2.51       5.25
C       1.82       1.82       4.41
C       2.56       2.33       3.11
C       3.67       3.00       3.97
C       2.81       4.31       4.02
C       1.69       3.64       3.15
C       0.97       3.14       4.45
C       2.07       3.81       5.32
C       2.30      -0.69      14.14
C       1.89       3.50      11.26
C       0.69       2.60      13.19
C       0.88       3.59      12.25
C       2.68       2.37      11.25
C       2.53       1.34      12.20
C       1.53       1.45      13.24
C       1.48       0.43      14.24
C       3.25      -0.80      13.11
C       3.38       0.19      12.17
C       2.24      -1.81      15.15
C       2.71       1.48       1.90
C       5.59      14.17       1.79
C       5.04      10.77      15.00
N       3.55       1.93       6.46
N      -0.47       2.78      14.10
N       0.04       4.81      12.29
Cl       0.53       0.61      15.68
Cl       4.60       0.04      10.97
O       3.15       4.91       9.85
O       0.82       5.14       6.83
O      -0.29       7.56       7.12
O       0.89       4.82       9.61
O      -0.16       7.33       9.82
O       3.04       4.83       7.16
O       2.00       6.98       8.44
O       4.21       7.44       9.70
O       4.13       7.23       6.92
O       5.33       5.33       8.39
O       1.64       1.34       1.22
O       3.34      -2.10      15.71
O       3.90      11.22      15.36
O       3.84       0.98       1.63
O       4.46      14.40       1.25
O       1.11      -2.35      15.35
O       1.76      11.49      16.81
O       0.03      14.79       1.53
O      -0.49      10.98      15.59
O       5.99       0.83       0.02
O       4.77       1.72       6.46
O       2.78       1.70       7.40
O       5.22       2.02      13.91
O      -0.40       3.69      14.92
O       0.64       5.87      12.46
O       5.46       4.67      12.17
