91

Al       4.40      17.55      10.19
H       2.91      15.56      13.64
H       3.10      13.59      15.08
H       3.00      32.85      17.31
H       2.39      19.52       3.83
H       3.91      19.15       2.31
H       4.88      30.93      20.25
H       4.01      31.29      18.33
H       2.81      15.52       6.73
H       3.04      15.27       4.31
H       2.83      27.14      19.95
H       2.23      22.13      15.04
H       4.09      23.43      15.49
H       4.51      25.45      16.82
H       3.71      27.00      18.10
H       3.15      21.49      10.21
H       3.44      23.72      11.20
H       2.55      27.79      13.76
H       2.23      11.06      11.68
H       3.77       9.88      12.72
H       4.88      31.12      13.83
H       3.77      29.34      14.50
C       2.39      15.71      11.04
C       2.39      19.22      11.36
C       2.39      17.73       8.16
C       2.76      14.57      13.22
C       2.86      13.45      14.03
C       2.35      10.72      15.65
C       2.44       9.50      16.30
C       2.41      18.76       5.82
C       2.51      18.63       4.43
C       3.47      18.36       1.71
C       3.58      18.43       0.33
C       2.48      14.45      11.85
C       2.67      12.15      13.51
C       2.77      10.91      14.32
C       3.92      31.78      15.66
C       3.92      30.46      16.34
C       3.95      30.37      17.74
C       2.72      16.40       6.09
C       2.84      16.26       4.71
C       2.38      16.26       1.53
C       2.49      16.31       0.15
C       2.28      20.77      13.40
C       2.45      22.03      13.98
C       3.73      24.39      15.12
C       3.96      25.54      15.88
C       2.49      17.65       6.67
C       2.71      17.37       3.85
C       2.83      17.30       2.38
C       3.84      29.06      19.87
C       3.88      29.13      18.39
C       3.78      27.97      17.61
C       2.94      21.64      11.27
C       3.10      22.90      11.83
C       2.69      25.70      13.43
C       2.92      26.85      14.17
C       2.32      13.16      11.33
C       2.41      12.03      12.14
C       3.35       9.78      13.72
C       3.44       8.55      14.35
C       2.52      20.55      12.04
C       2.85      23.12      13.20
C       3.06      24.41      13.88
C       3.55      26.80      15.42
C       3.74      28.03      16.21
C       3.82      29.28      15.59
N       1.80      19.68      14.26
N       2.01      12.96       9.91
N       2.17      20.10       6.36
N       1.94      25.92      12.17
N       1.72      11.79      16.46
N       1.69      15.05       2.03
O       3.33      18.30       8.80
O       3.33      15.97      10.23
O       3.32      18.37      11.53
O       1.41      17.10       8.67
O       1.41      19.11      10.56
O       1.41      16.46      11.34
O       1.49      18.61      13.71
O       1.71      19.90      15.48
O       1.56      13.93       9.29
O       2.20      11.83       9.43
O       1.62      20.18       7.47
O       2.51      21.07       5.67
O       1.23      25.00      11.75
O       2.03      27.03      11.64
O       0.93      12.56      15.89
O       1.99      11.81      17.67
O       0.92      15.17       2.99
O       1.91      13.99       1.42
