152

Zn       8.46      12.29       7.70
Zn      -2.36      -3.21       7.66
Zn      -2.35       8.31       0.93
Zn       8.35       0.71      14.43
Zn      -2.43       8.31      14.33
Zn       8.67       0.53       0.99
H      -6.48       7.40       6.88
H      10.14      13.85       4.33
H      10.30      15.22       2.32
H      11.62      14.41       0.35
H      12.70      12.21       0.41
H      13.60       7.87       2.88
H      13.34       6.51       4.89
H      11.04       9.62       6.77
H       1.14      -4.98       9.66
H      -3.37      -5.84      11.15
H      -4.37      -7.26      12.88
H      -9.07       8.92      14.30
H      -6.63       9.00      14.06
H       2.59      -6.34      11.19
H      12.21      -4.47      11.33
H      13.52      -1.06       8.16
H      11.57       2.51       9.53
H      10.62       1.27      11.47
H      10.89      -3.25      13.06
H      13.93      -0.51       4.90
H       7.97      12.32       4.49
H       7.24      10.72       2.80
H       5.93      11.48       0.81
H       5.40      13.88       0.53
H      12.46       0.21       3.01
H      13.34       5.28       2.48
H       8.05      -2.70      13.21
H       7.23      -3.59      11.07
H       5.36      -5.26      11.04
H       4.45      -6.13      13.15
H      11.58       3.50       2.45
H      -3.12      12.11       1.72
H      -4.26      14.07       2.69
H       3.01      -1.35       2.65
H      -0.88      16.55       1.70
H      -4.10       4.77      14.95
H      -5.36       2.74      12.65
H      -3.79       3.30      13.27
H      -4.04       1.58      12.91
H       2.17      10.72       0.01
H      -5.66       1.34      14.76
C      -1.50      -4.94       9.51
C      10.38      11.88       5.87
C      14.42      -2.98       5.70
C      13.57      -3.47       9.30
C      10.67      13.46       3.47
C      10.78      14.24       2.35
C      11.52      13.78       1.24
C      12.13      12.55       1.27
C      12.02      11.69       2.41
C      11.27      12.17       3.55
C      12.64      10.41       2.48
C      12.48       9.58       3.63
C      11.71      10.06       4.75
C      11.13      11.34       4.69
C      13.04       8.27       3.72
C      12.90       7.50       4.85
C      -6.40       8.00       5.97
C      11.61       9.24       5.92
C      -2.73      -6.45      11.78
C      -9.43      10.40      12.75
C      -8.62       9.58      13.55
C      -7.25       9.62      13.42
C      -6.63      10.46      12.45
C      -1.32      -6.42      11.57
C      -0.69      -5.63      10.56
C       0.69      -5.59      10.44
C       1.50      -6.36      11.30
C      -5.21      10.52      12.29
C      12.88      -0.58       8.90
C      12.58       0.76       8.77
C      11.77       1.45       9.69
C      11.26       0.76      10.76
C      11.52      -0.63      10.94
C      12.36      -1.32      10.00
C      12.61      -2.72      10.17
C      12.03      -3.40      11.23
C      11.27      -2.71      12.19
C      11.02      -1.35      12.07
C       7.41      12.68       3.63
C       6.99      11.78       2.68
C       6.26      12.21       1.56
C       5.96      13.54       1.41
C       6.39      14.50       2.36
C       7.14      14.07       3.51
C       7.61      15.06       4.43
C      13.53      -1.25       4.20
C      12.72      -0.84       3.13
C       6.08      15.89       2.23
C      14.38       6.56       0.39
C      13.57       9.98       1.40
C      -1.46      10.79       0.41
C      10.24      -0.70      13.16
C      10.59       2.20       0.37
C      -4.32       9.82      13.26
C       1.45      15.80       0.45
C       5.09      16.39       1.22
C       7.26      -3.45      13.21
C       6.80      -3.95      12.01
C       5.75      -4.90      11.99
C       5.23      -5.38      13.18
C       5.72      -4.92      14.43
C       6.72      -3.89      14.45
C      13.49       5.37       0.34
C      12.98       4.87       1.53
C      11.99       3.88       1.52
C      11.53       3.35       0.32
C      -2.63      13.08       1.70
C      -3.26      14.18       2.25
C      -2.63      15.44       2.23
C      -1.37      15.58       1.69
C      -0.68      14.48       1.13
C      -1.34      13.20       1.12
C      -0.69      12.07       0.53
C      -5.73       3.40      15.36
C       1.22      13.41       0.01
C       0.63      14.55       0.55
C      -5.01       2.23      14.74
C      -4.52       2.48      13.31
N      13.13       1.49       7.61
O      -8.65      12.08       9.07
O      -1.13      -3.78       9.09
O       9.34      11.23       6.29
O      -7.78      12.95       6.38
O       7.83      13.65       6.31
O      15.41      -2.27       6.14
O      13.27      -4.69       9.00
O      -3.95      -2.87       8.95
O      15.35       6.59       1.24
O       7.79      -1.24      14.96
O      -3.90       9.47       1.74
O      13.23      10.16       0.16
O      -1.12       9.80       1.16
O      -8.72       2.02      14.93
O      -7.98      -0.94      14.35
O       9.24       0.05      12.83
O       4.49      -7.50      14.93
O       9.64       2.21       1.24
O      -3.34       9.11      12.80
O       1.58      -7.66      14.50
O      -3.97       7.08      14.92
O       1.22      16.78       1.27
O      -1.05       7.37      15.34
O      10.27      -0.61       1.70
O      13.90       0.89       6.85
O      12.78       2.68       7.47
