178

Tb      13.39       7.73      11.97
Tb       6.69       3.87       9.63
Tb       6.69       3.87       2.43
Tb      13.39       7.73       4.77
Cu      10.04       5.80       0.00
Cu      13.39      11.60       0.00
Cu      16.74       5.80      14.40
Cu      16.74       5.80       7.20
Cu      13.39      11.60       7.20
Cu      10.04       5.80       7.20
H       8.61       7.42       1.20
H       8.81       0.43       1.20
H       2.66       3.75       1.20
H      15.31       4.18       6.00
H      15.51      11.17       6.00
H       9.35       7.85       6.00
H      11.47       4.18      13.20
H      11.27      11.17      13.20
H      17.43       7.85      13.20
H       4.78       7.42       8.40
H       4.57       0.43       8.40
H      10.73       3.75       8.40
H       9.90       7.98       2.96
H      15.35      10.63       2.96
H      14.92       4.59       2.96
H       3.21       3.62       4.24
H       8.65       0.97       4.24
H       8.23       7.01       4.24
H      10.18       3.62      11.44
H       4.74       0.97      11.44
H       5.16       7.01      11.44
H      16.88       7.98      10.16
H      11.43      10.63      10.16
H      11.86       4.59      10.16
H      11.15       8.60       1.90
H      15.26       9.24       1.90
H      13.76       5.36       1.90
H       4.46       3.00       5.30
H       8.56       2.36       5.30
H       7.06       6.24       5.30
H       8.93       3.00      12.50
H       4.82       2.36      12.50
H       6.33       6.24      12.50
H      15.63       8.60       9.10
H      11.52       9.24       9.10
H      13.02       5.36       9.10
H       9.65       9.65       0.37
H      16.92      10.01       0.37
H      13.60       3.54       0.37
H       2.96       1.95       6.83
H      10.22       1.59       6.83
H       6.90       8.06       6.83
H      10.43       1.95      14.03
H       3.17       1.59      14.03
H       6.49       8.06      14.03
H      17.13       9.65       7.57
H       9.86      10.01       7.57
H      13.18       3.54       7.57
H       8.80       8.59      13.62
H      16.43      11.28      13.62
H      14.94       3.33      13.62
H       2.11       3.01       7.98
H       9.73       0.32       7.98
H       8.25       8.27       7.98
H      11.28       3.01       0.78
H       3.66       0.32       0.78
H       5.14       8.27       0.78
H      17.98       8.59       6.42
H      10.35      11.28       6.42
H      11.84       3.33       6.42
C      11.34       6.52       2.31
C      13.37      10.11       2.31
C      15.46       6.56       2.31
C       4.64       5.08       4.89
C       6.67       1.48       4.89
C       8.77       5.04       4.89
C       8.75       5.08      12.08
C       6.72       1.48      12.08
C       4.62       5.04      12.08
C      15.44       6.52       9.51
C      13.41      10.11       9.51
C      11.31       6.56       9.51
C      10.47       7.74       2.05
C      14.86      10.25       2.05
C      14.84       5.20       2.05
C       3.78       3.85       5.15
C       8.16       1.35       5.15
C       8.14       6.40       5.15
C       9.61       3.85      12.35
C       5.23       1.35      12.35
C       5.25       6.40      12.35
C      16.30       7.74       9.25
C      11.92      10.25       9.25
C      11.94       5.20       9.25
C      10.91       8.56      13.41
C      15.34       9.46      13.41
C      13.91       5.17      13.41
C       4.22       3.04       8.19
C       8.65       2.13       8.19
C       7.22       6.42       8.19
C       9.17       3.04       0.99
C       4.74       2.13       0.99
C       6.17       6.42       0.99
C      15.87       8.56       6.21
C      11.44       9.46       6.21
C      12.87       5.17       6.21
C       9.67       8.65      14.29
C      16.05      10.49      14.29
C      14.45       4.05      14.29
C       2.97       2.94       7.31
C       9.35       1.10       7.31
C       7.76       7.55       7.31
C      10.42       2.94       0.11
C       4.03       1.10       0.11
C       5.63       7.55       0.11
C      17.11       8.65       7.09
C      10.73      10.49       7.09
C      12.33       4.05       7.09
N       9.59       7.57       0.88
N      15.15      11.10       0.88
N      15.43       4.52       0.88
N       2.89       4.03       6.32
N       8.46       0.49       6.32
N       8.74       7.08       6.32
N      10.50       4.03      13.52
N       4.93       0.49      13.52
N       4.65       7.08      13.52
N      17.19       7.57       8.08
N      11.63      11.10       8.08
N      11.35       4.52       8.08
O      11.62       7.49      13.51
O      14.07       9.38      13.51
O      14.48       6.32      13.51
O       4.93       4.10       8.09
O       7.37       2.22       8.09
O       7.78       5.28       8.09
O       8.46       4.10       0.89
O       6.02       2.22       0.89
O       5.61       5.28       0.89
O      15.16       7.49       6.31
O      12.71       9.38       6.31
O      12.30       6.32       6.31
O      11.26       5.52       1.52
O      12.54      10.68       1.52
O      16.36       6.99       1.52
O       4.57       6.07       5.68
O       5.85       0.92       5.68
O       9.67       4.60       5.68
O       8.82       6.07      12.88
O       7.54       0.92      12.88
O       3.72       4.60      12.88
O      15.52       5.52       8.72
O      14.24      10.68       8.72
O      10.41       6.99       8.72
O      11.18       9.50      12.61
O      16.02       8.76      12.61
O      12.97       4.93      12.61
O       4.48       2.10       8.99
O       9.33       2.83       8.99
O       6.27       6.66       8.99
O       8.90       2.10       1.79
O       4.06       2.83       1.79
O       7.12       6.66       1.79
O      15.60       9.50       5.41
O      10.76       8.76       5.41
O      13.81       4.93       5.41
O      12.11       6.53       3.31
O      12.99       9.43       3.31
O      15.06       7.22       3.31
O       5.42       5.06       3.89
O       6.30       2.16       3.89
O       8.37       4.37       3.89
O       7.97       5.06      11.09
O       7.09       2.16      11.09
O       5.02       4.37      11.09
O      14.67       6.53      10.51
O      13.79       9.43      10.51
O      11.72       7.22      10.51
