132

Zn      -1.75       5.51      15.23
Zn       4.77      -7.59      15.32
Zn       7.41       1.03       1.79
Zn       0.98       6.27      13.57
H      -4.03       6.54      13.21
H      -0.75       3.56       8.96
H      -2.98       1.07      11.68
H       3.03      -5.63      13.43
H      -3.88      -0.20       9.77
H      11.59       0.07       8.14
H      10.27      -0.36       6.13
H      13.79       0.14       3.70
H      -1.89       0.54       5.72
H       2.62      -3.01       9.54
H       2.49      -4.38      11.57
H      12.36       0.77       1.87
H      -1.25       8.67       9.15
H      -1.08      10.04       7.12
H      -1.65      11.60       5.50
H       6.74       4.06       3.22
H      -0.63      12.75       3.57
H       5.37      -1.46       6.26
H       4.35      -2.59       8.18
H       5.85       6.13       2.49
H      10.33      10.03       1.96
H       5.03       8.45       2.58
H       5.62       0.07       4.42
H       9.43      12.27       1.56
H       5.42      10.78       2.06
H      10.17      -6.68      14.49
H       0.58       4.18      10.95
H       6.33       6.78      11.56
H      -4.64      -5.73      15.13
H       8.78       6.77      11.38
H      -2.21      -6.05      15.29
H      -6.04       7.41      12.36
H       9.94       5.17       0.53
H       4.16       6.26      12.39
H      -3.05       3.26      13.10
H      -0.72       7.37      11.03
H       5.20       2.93       0.39
H       4.66      13.04       2.09
H       7.87      -6.64      14.60
H       1.43      13.16       1.96
H       3.11       4.40      15.22
H       8.94      -0.47       4.23
H      -1.64       2.30       7.06
C      -3.74       7.33      13.90
C       1.68      14.13       2.39
C       7.31      13.85       0.33
C       3.08      -6.63      13.01
C       9.64      -0.11       3.49
C       6.77      12.95       1.27
C      11.05       0.02       3.56
C       5.00      -1.96       3.66
C       4.81       8.20      13.33
C      -1.92       2.00       8.07
C      -1.41       2.72       9.15
C       2.76      -7.09      11.72
C      -1.82       2.44      10.47
C      -2.69       1.35      10.66
C      -3.20       0.63       9.58
C       7.55       4.11       2.50
C      -2.85       0.97       8.26
C      12.09       0.06       7.17
C      11.34      -0.18       6.03
C      11.90      -0.07       4.74
C      13.29       0.12       4.67
C      14.05       0.35       5.81
C       8.26       5.23       2.04
C      13.45       0.40       7.09
C       2.58      -4.10       9.45
C       2.50      -4.87      10.60
C       2.51      -6.28      10.53
C      -0.25       4.11      11.64
C      -1.21       9.76       9.25
C      -1.12      10.53       8.10
C       2.67      -4.69       8.17
C      -0.90      12.38       5.68
C      -0.33      13.02       4.59
C      -1.41       3.31      11.56
C       4.29      -2.59       4.77
C       4.60      -2.22       6.09
C       4.02      -2.86       7.17
C       3.10      -3.91       7.00
C       7.94       6.64       2.27
C       9.19       4.68       1.14
C       7.34      11.70       1.74
C       9.25      10.19       1.99
C       8.74      11.45       1.75
C       6.50      10.64       2.07
C       5.45      13.41       1.44
C       6.99       9.33       2.28
C       8.40       9.07       2.20
C       8.84       7.71       2.25
C       6.55       6.95       2.44
C       6.09       8.24       2.47
C       6.24       8.34      13.08
C      -2.09       3.62      12.75
C      -2.12      -7.70      13.88
C      -4.15      -6.49      14.52
C      -2.79      -6.67      14.61
C      11.39       0.51       2.28
C      -6.52       8.18      12.97
C      -7.92       8.32      12.87
C      12.06      -7.35      13.71
C      10.65      -7.36      13.79
C       6.91       7.47      12.17
C       8.29       7.47      12.06
C      -0.62       8.14      11.79
C       0.09      -7.50      15.19
C      -0.76      -8.09      14.23
C       5.62      -0.70       3.65
C       3.95       7.14      12.98
C       7.63      -7.59      14.11
I      10.93       7.34       2.33
N      -2.61       7.21      14.63
N       8.03       2.98       1.94
N      -0.25       4.83      12.78
N       9.05       3.34       1.09
N      -1.41       4.53      13.46
N      -0.16       7.83      13.02
N       6.35       1.18       0.09
N       5.23      14.48       0.65
N      10.28       0.68       1.55
N       6.25      -0.49       2.48
N       2.73       7.34      13.50
N       6.40      -8.10      14.21
N       2.43      15.01       1.70
N       1.18       5.26      15.29
N       9.21       0.30       2.29
N       3.52      -7.66      13.77
