126

Zn       6.28       8.61       7.53
Zn       6.28       5.69       7.53
H       8.20       0.95       6.55
H       8.76       9.17       1.96
H       8.67      11.25       0.54
H       9.65      10.24      14.13
H      10.13      10.30       0.18
H       9.77       5.98      14.97
H       9.86       5.21      13.35
H       9.65       2.94      14.42
H      10.13       3.83       0.04
H       8.61       3.71       0.96
H       3.70       8.16      14.58
H       4.12      13.35       7.53
H       3.79       9.17      13.11
H       3.88      11.24      14.53
H       2.90      10.24       0.94
H       2.41      10.29      14.89
H       2.78       5.98       0.10
H       2.69       5.21       1.72
H       2.90       2.95       0.65
H       2.42       3.82      15.03
H       3.94       3.70      14.11
H       5.33      10.30       4.34
H       4.36       0.95       8.52
H       5.57      10.56       2.58
H       6.37      12.52       4.02
H       7.62      11.44       4.71
H       7.65      11.84       2.98
H       6.47       3.98      10.99
H       7.25       3.48      12.53
H       9.26       2.67      11.27
H       7.79       1.89      10.62
H       8.55       3.25       9.74
H       7.23      10.30      10.73
H       8.44      13.35       7.53
H       6.98      10.56      12.48
H       6.18      12.52      11.04
H       4.94      11.44      10.35
H       4.91      11.83      12.08
H       6.08       3.98       4.07
H       5.30       3.48       2.53
H       3.30       2.67       3.80
H       4.77       1.89       4.44
H       4.01       3.25       5.32
H      10.27       3.99       6.60
H       2.60       9.71       6.52
H       2.28       3.99       8.46
H       9.95       9.71       8.55
H       8.85       8.17       0.48
C       5.78       7.11       5.05
C       3.76       7.22       7.96
C       7.34       1.45       7.00
C       5.09      12.86       7.53
C       5.21       1.45       8.06
C       7.47      12.86       7.53
C      10.23       7.35       7.21
C       2.32       7.35       7.86
C      11.44       7.41       7.42
C       1.12       7.41       7.65
C       7.31       2.84       7.01
C       6.78       7.11      10.01
C       5.12      11.46       7.51
C       5.25       2.84       8.05
C       7.43      11.46       7.55
C       6.40       8.15       1.46
C       7.43       6.08      13.63
C       6.16       8.14      13.61
C       5.12       6.08       1.44
C       6.31       8.20       2.86
C       7.45       6.09      12.22
C       6.24       8.20      12.21
C       5.69       7.15       3.56
C       5.10       6.09       2.85
C       8.46       3.55       6.32
C       3.75      10.82       7.53
C       4.10       3.55       8.74
C       8.80      10.82       7.53
C       8.48       9.12       0.90
C       9.04      10.30       0.12
C       9.47       5.10      14.37
C       9.95       3.81      15.02
C       4.07       9.12      14.17
C       6.86       7.14      11.50
C       3.51      10.29      14.95
C       3.08       5.10       0.70
C       2.60       3.82       0.05
C       6.09      10.44       3.55
C       6.99      11.63       3.83
C       7.43       3.82      11.50
C       8.31       2.85      10.74
C       6.47      10.44      11.51
C       5.57      11.63      11.23
C       5.12       3.82       3.56
C       5.79       7.10       0.74
C       4.24       2.85       4.33
C       6.76       7.10      14.33
C       6.28       0.72       7.53
C       6.28      13.59       7.53
C       8.80       7.22       7.10
N       6.28       3.55       7.53
N       6.28      10.75       7.53
O       5.50       8.18       5.70
O       9.58       3.47       7.07
O       2.98      11.03       8.45
O       3.47      10.16       6.40
O       4.17       4.01       9.86
O       2.97       3.47       7.99
O       9.57      11.03       6.61
O       9.09      10.16       8.67
O       7.04       9.15       0.77
O       8.02       5.05      14.33
O       5.51       9.15      14.29
O       6.40       6.01       9.50
O       4.53       5.05       0.74
O       6.91       9.25       3.51
O       8.13       5.09      11.55
O       5.64       9.25      11.56
O       4.42       5.10       3.52
O       7.06       8.17       9.37
O       6.16       6.01       5.57
O       8.15       8.25       6.73
O       4.22       6.08       7.64
O       4.40       8.25       8.33
O       8.34       6.08       7.43
O       8.38       4.01       5.20
