115

Zn       9.97      10.31       9.80
Zn      10.22       8.06       7.61
Zn       7.73      10.26       7.55
Zn       7.79       7.84       9.58
H      11.14      10.54       1.12
H       1.35       6.41       8.02
H       3.84       6.58       8.07
H       3.56      10.83       8.66
H      12.97      12.75      16.24
H       7.56       6.82      16.12
H       7.48       7.06      13.65
H      10.14      10.40      13.85
H       7.08       6.17       2.37
H      11.46      11.39      14.88
H       7.42       3.31       1.87
H       7.25       3.70       8.97
H       6.25       1.50       3.12
H       3.76       1.48       3.25
H       2.46       3.29       2.13
H       3.63       5.08       0.87
H       5.85       9.31       2.27
H       3.69       8.68       3.32
H       3.65       7.10       5.25
H       5.80       6.18       6.13
H       7.95       6.80       5.06
H      15.86      12.46      11.13
H      11.43       3.99       8.04
H      16.77      14.75      11.49
H       2.83      15.89       9.67
H       3.19      14.71       7.50
H       2.28      12.43       7.15
H      11.08      10.82       4.87
H       6.23      16.69       9.13
H      11.67       1.51       8.19
H       6.42      14.21       9.07
H      10.69      14.51       8.60
H      14.35       7.47       8.22
H      14.03      11.61       9.29
C       9.20       5.46       8.50
C      11.38      11.35      15.96
C      12.22      12.11      16.72
C       8.68      12.74       8.82
C       9.50       9.15       0.85
C       8.50       8.35       1.51
C      10.37       9.94       1.61
C      10.30       9.97       2.99
C       8.30       8.54       2.91
C       9.32       3.98       8.52
C       8.58      14.23       8.84
C       8.07       7.74      14.26
C       7.20      16.21       8.99
C       7.31      14.84       8.97
C       9.72      15.00       8.69
C      12.57       9.38       8.80
C       9.63      16.41       8.62
C       8.29       1.80       8.80
C       8.20       3.21       8.78
C      10.58       3.36       8.27
C      10.70       1.99       8.35
C      14.06       9.52       8.76
C       9.59       9.63      14.38
C       3.82       8.73       8.34
C       1.84       7.37       8.17
C       3.21       7.47       8.19
C       3.06       9.87       8.53
C       5.31       8.83       8.37
C       1.65       9.80       8.59
C      16.24       8.52       8.39
C      14.83       8.42       8.43
C      14.67      10.77       9.03
C      16.03      10.94       8.91
C       9.65       9.53      15.79
C       9.14       9.33       5.14
C       8.78       8.91      12.14
C       8.81       8.76      13.62
C       9.23       9.28       3.64
C       8.11       7.62      15.63
C       5.60       4.31       1.28
C       6.33       3.30       1.93
C       5.67       2.28       2.63
C       4.28       2.27       2.70
C       3.55       3.28       2.07
C       8.88       8.51      16.43
C       4.20       4.29       1.36
C       7.04       8.10       3.59
C       5.83       8.62       3.11
C       4.62       8.27       3.71
C       4.60       7.38       4.79
C       5.81       6.87       5.28
C       7.02       7.23       4.69
C      16.62      12.29       9.12
C      16.42      12.96      10.34
C       1.72      14.25      10.54
C      10.47      10.43      16.58
C       2.44      14.88       9.52
C       2.64      14.22       8.30
C       2.14      12.94       8.11
C      11.26      10.79       3.77
C       7.76       7.39       0.70
C       7.04       6.31       1.29
C       6.31       5.40       0.57
O       8.93       9.13       8.62
O       9.95       8.55       5.73
O       8.02       8.12      11.50
O       8.29      10.12       5.66
O       9.53       9.82      11.64
O      12.19      11.41       3.28
O      11.92      10.22       9.50
O       5.93       7.88       8.96
O      10.08       6.11       7.83
O       7.76      12.12       8.19
O       8.23       5.97       9.15
O       9.68      12.22       9.42
O      12.07       8.42       8.13
O       5.83       9.86       7.83
