132

Zn      10.40       8.62      13.93
Zn       7.65       8.56      14.13
H      11.05      15.34      13.69
H       2.90       9.80      12.69
H       3.12       6.92      15.89
H      14.94      10.29      12.21
H       7.80       7.34      21.01
H      10.25       9.82       7.06
H      10.16       5.25      24.61
H       7.88      11.92       3.46
H       6.91       7.65      10.00
H      11.12       9.53      18.07
H       8.49       5.28       3.49
H       7.06       1.89      14.99
H       9.53      11.89      24.58
H       8.57       5.23       1.03
H       9.46      11.94      27.03
H      10.96      12.83      13.51
H       7.12       4.40      14.86
H       7.97       5.22      18.56
H       8.07       6.05      16.97
H       6.49       5.51      17.61
H      10.04      11.06      11.17
H      10.06      11.93       9.59
H      11.23       1.75      13.97
H      11.59      11.63      10.47
H       5.65       7.07      15.74
H      12.40      10.14      12.34
H       6.59       7.58       7.52
H      11.44       9.60      20.55
H      11.29       3.81      25.86
H       9.52       3.53      25.79
H      10.47       2.93      27.19
H       8.52      13.64       2.27
H       6.74      13.36       2.20
H       6.91      15.39      14.83
H       7.57      14.24       0.87
H      11.29       4.28      13.86
H       6.82      12.87      14.64
H      12.60       7.36      15.39
H       5.44       9.80      12.65
H      15.13       7.37      15.38
C       9.19       5.97      14.17
C       8.34       7.41       3.59
C       9.28       8.44      18.15
C       8.76       8.73       9.92
C       8.43       7.35       0.74
C       9.60       9.81      27.33
C       8.19       9.86       0.70
C       9.84       7.31      27.37
C       8.29       8.62       1.41
C       9.74       8.55      26.65
C       8.48       6.19       1.52
C       8.88      11.21      14.03
C       9.54      10.98      26.55
C       8.44       6.21       2.91
C       9.59      10.96      25.15
C       9.15       8.53      16.66
C       8.89       8.65      11.41
C      10.01       6.12      26.60
C       8.02      11.05       1.47
C       9.20       4.48      14.33
C       8.89      12.71      14.08
C       8.01       3.81      14.67
C       9.78       8.56      25.22
C      10.08      13.41      13.80
C       7.97       2.42      14.74
C      10.14      14.78      13.90
C       9.14       1.69      14.45
C       8.99      15.50      14.30
C      10.34       2.36      14.17
C       7.78      14.81      14.54
C      10.37       3.74      14.11
C       7.74      13.42      14.44
C       4.87       9.19      13.35
C       8.25       8.61       2.85
C      13.17       7.99      14.71
C       3.49       9.18      13.37
C      14.56       8.00      14.70
C       2.84       8.35      14.30
C      15.21       8.84      13.79
C       9.93       7.29      23.03
C       8.11       9.88       5.03
C       3.61       7.56      15.17
C      14.44       9.64      12.92
C       5.00       7.64      15.08
C       9.92       7.34      24.51
C      13.06       9.56      13.00
C       9.69       9.77      23.00
C       8.35       7.40       5.07
C      10.58       9.09      20.11
C       7.46       8.08       7.96
C      10.40       9.06      18.73
C       7.64       8.12       9.34
C       8.34       7.82      18.99
C       9.70       9.35       9.07
C       8.53       7.84      20.38
C       8.11       9.83       3.56
C       9.52       9.32       7.69
C       9.63       8.48      20.93
C       8.41       8.69       7.14
C       7.47       5.92      17.88
C      10.60      11.22      10.23
C      10.37       3.74      26.46
C       7.66      13.43       1.61
C      10.05       6.15      25.20
C       7.99      11.02       2.87
C       9.70       9.76      24.48
N       9.77       8.51      22.36
N       8.27       8.66       5.71
N       9.19       0.28      14.38
N       8.94      16.90      14.44
N       5.61       8.43      14.19
N      12.44       8.75      13.87
N       1.43       8.23      14.44
N      16.61       8.96      13.65
O      10.31       6.56      14.04
O       7.99      10.94       5.66
O       8.43       6.36       5.72
O       9.60      10.81      22.34
O       7.21       7.17      18.54
O      10.84       9.99       9.52
O      10.15       4.92      27.24
O       7.88      12.25       0.83
O       7.76      10.62      14.15
O       8.04       6.53      14.17
O      10.01      10.64      13.87
O      10.23       8.63      15.99
O       7.80       8.62      12.08
O       7.97       8.52      16.16
O      10.06       8.59      11.90
O      10.06       6.23      22.41
