87

Al       7.63       2.53       9.64
Al       4.43       2.59       9.60
Al       5.91       5.21       9.59
Al      -1.62       8.01      19.04
Al       1.57       7.76      18.98
Al      -0.04       5.22      18.94
H       1.48       3.72      15.36
H       4.16       6.64      12.33
H      -1.68       4.85      13.90
H       3.82       0.53      12.47
H      -3.59       7.17      15.56
H       2.37      10.07      15.59
H       2.26       3.27      13.10
H       6.91       6.54      13.40
H       7.64       0.69      13.40
H       3.29       6.21      15.39
H       9.13       4.29      15.55
H      -0.70      10.35      15.52
H       9.82       2.04      10.27
H      -3.15       9.70      18.56
C       7.89       4.79       7.71
C       0.32       9.43      17.18
C       2.04       5.67      17.07
C      -2.07       5.73      17.13
C       7.86       4.97      11.46
C       5.81       1.22      11.63
C       3.69       4.64      11.38
C       2.77       5.35       2.64
C      -2.26       5.50       2.77
C       0.68       9.86       2.88
C       3.22       5.01       5.14
C       5.77       0.99       7.84
C       8.69       5.30       5.24
C       5.87       0.05       5.37
C       2.98       5.17       3.83
C      -2.58       5.42       3.94
C       0.68      10.17       4.07
C       3.44       4.88       6.34
C       8.36       5.18       6.41
C       5.81       0.38       6.54
C       3.26       5.05      12.74
C       8.44       5.24      12.81
C       3.90       4.66       7.68
C       5.62       0.61      12.98
C       2.59       5.46      15.73
C      -2.66       5.33      15.84
C       0.29      10.10      15.88
C       2.17       4.44      14.92
C       8.25       6.21      15.09
C       1.41      10.33      15.14
C       2.56       4.21      13.56
C       7.79       6.00      13.74
C       6.67       0.41      13.82
C       0.55       9.33       1.55
C       2.32       5.71       1.32
C      -1.77       5.76       1.44
O       6.87       1.21       8.43
O       6.90       5.74      11.07
O       8.31       3.98      10.84
O       4.71       1.31      10.94
O       4.41       5.52      10.77
O       5.96       3.45       9.63
O      -2.14       6.84       0.90
O       1.64       9.16       0.87
O       1.55       4.89       0.72
O      -0.62       9.05       1.18
O       2.67       6.86       0.90
O       3.51       3.61       8.28
O      -0.96       4.89       0.94
O      -2.22       6.92      17.52
O       1.46       9.03      17.66
O       1.15       4.86      17.52
O      -0.80       9.23      17.75
O       2.47       6.70      17.70
O      -1.39       4.81      17.74
O       3.67       6.28      13.11
O      -2.01       4.59      13.02
O       4.34       0.31      13.28
O       7.26       5.68       8.41
O      -0.01       6.98      19.02
O       8.09       3.59       8.04
O       4.60       1.31       8.28
O       4.73       5.52       8.15
O       6.94       1.63      11.28
O       3.41       3.48      10.94
O       9.15       1.67       9.68
O      -3.10       8.93      19.14
