92

In       1.83       8.24       8.60
In      -1.83       8.24       8.60
H      -0.00       6.22       8.60
H       3.66      10.25       8.60
H       3.66       0.00       1.09
H      -0.00      16.47      16.11
H      -0.00      11.35       1.35
H       3.66       5.12       1.35
H      -0.00      11.35      15.85
H       3.66       5.12      15.85
H      -0.00      15.12       5.11
H       3.66       1.35       5.11
H      -0.00      15.12      12.08
H       3.66       1.35      12.08
H       2.15      12.85       3.61
H       1.51       3.62       3.61
H      -2.15      12.85      13.59
H       5.81       3.62      13.59
H       1.51       3.62      13.59
H       2.15      12.85      13.59
H       5.81       3.62       3.61
H      -2.15      12.85       3.61
H       2.14      11.12       5.43
H       1.52       5.35       5.43
H      -2.15      11.13      11.77
H       5.81       5.35      11.77
H       1.52       5.35      11.77
H       2.14      11.12      11.77
H       5.81       5.35       5.43
H      -2.15      11.13       5.43
C      -0.00      14.02       2.44
C       3.66       2.46       2.44
C      -0.00      14.02      14.76
C       3.66       2.46      14.76
C      -0.00      13.61       1.09
C       3.66       2.87       1.09
C      -0.00      13.61      16.11
C       3.66       2.87      16.11
C      -0.00      12.20       0.68
C       3.66       4.27       0.68
C      -0.00      12.20      16.52
C       3.66       4.27      16.52
C      -0.00      15.34       2.89
C       3.66       1.13       2.89
C      -0.00      15.34      14.31
C       3.66       1.13      14.31
C      -0.00      15.79       4.25
C       3.66       0.69       4.25
C      -0.00      15.79      12.94
C       3.66       0.69      12.94
C      -0.00      12.96       3.50
C       3.66       3.51       3.50
C      -0.00      12.96      13.70
C       3.66       3.51      13.70
C       1.21      12.47       4.01
C       2.45       4.00       4.01
C      -1.21      12.47      13.18
C       4.87       4.00      13.18
C       2.45       4.00      13.19
C       1.21      12.47      13.19
C       4.87       4.00       4.01
C      -1.21      12.47       4.01
C       1.21      11.51       5.02
C       2.45       4.96       5.02
C      -1.21      11.52      12.17
C       4.87       4.96      12.17
C       2.45       4.96      12.17
C       1.21      11.51      12.17
C       4.87       4.96       5.02
C      -1.21      11.52       5.02
C      -0.00      11.03       5.54
C       3.66       5.44       5.54
C      -0.00      11.03      11.66
C       3.66       5.44      11.66
C      -0.00      10.01       6.63
C       3.66       6.46       6.63
C      -0.00      10.01      10.57
C       3.66       6.46      10.57
N      -0.00      14.44      17.20
N       3.66       2.04       0.00
N       3.66       0.00       2.11
N       3.66       0.00      15.09
O       1.14       9.62       7.05
O       2.52       6.85       7.05
O      -1.14       9.62      10.15
O       4.80       6.85      10.15
O       2.52       6.85      10.15
O       1.14       9.62      10.15
O       4.80       6.85       7.05
O      -1.14       9.62       7.05
O      -0.00       7.19       8.60
O       3.66       9.28       8.60
