192

Al      11.77       8.41      13.25
Al      13.59      11.03      13.19
Al      14.97       8.37      13.19
Al       2.11       1.63      26.48
Al       6.32      11.97      26.24
Al      12.80       1.97      26.30
H      14.22      10.61       7.09
H      14.21       6.31       6.38
H      12.03      11.41       6.75
H      14.32      10.24       4.82
H      13.60       5.11       4.50
H      11.30      11.28       4.57
H      10.28       0.53       4.79
H       2.05       2.58       6.15
H       9.58       8.16       5.63
H      16.84       8.75      16.74
H      11.73       7.16      17.14
H      12.65      12.61      16.93
H      17.67       8.59      21.45
H      11.16       6.48      21.85
H      12.36      13.64      21.60
H      10.83       2.45      19.98
H       3.14       3.35      20.29
H       6.98       9.69      20.30
H      15.28       9.23       7.30
H      12.54       6.11       6.88
H      10.90      12.73       7.01
H      16.21      12.92      15.87
H      15.52       5.36      16.20
H       9.33      10.00      16.15
H      18.48      11.27       7.26
H      13.07       2.98       8.89
H       8.06      10.58       8.21
H      17.84       9.63       7.09
H      11.91       3.88       7.90
H       8.49      12.16       7.51
H      18.04       9.85       4.81
H      12.23       2.13       6.37
H       7.62      11.36       5.52
H      10.79       0.39       6.99
H       1.70       3.35       8.24
H       9.57       8.73       7.81
H      10.04       7.03      14.01
H       3.88       3.08      26.03
C      13.67       6.77      11.39
C      11.43      10.73      11.45
C      15.57      10.50      11.28
C      15.87      12.53       5.27
C      15.38       3.54       6.11
C      10.19       9.06       5.79
C      16.09      12.58       6.80
C      15.33       4.16       7.53
C      10.36       9.30       7.31
C      16.38      11.11       3.29
C      13.91       2.58       4.32
C       9.06      10.09       3.79
C      16.26      11.03       8.80
C      13.84       5.45       9.09
C      10.50      11.05       9.03
C      16.11      10.79       9.98
C      13.73       6.00      10.17
C      10.82      11.12      10.20
C       8.50      12.13      24.52
C      18.25      12.73      24.29
C      14.32       3.58      24.66
C       8.04      10.62       1.43
C      17.55      11.43       1.01
C      13.99       1.74       1.79
C      16.85       9.79      17.07
C      12.60       6.58      17.46
C      11.75      12.12      17.28
C      17.15      10.10      18.41
C      12.71       6.16      18.79
C      11.33      12.28      18.61
C      17.41      10.73      21.18
C      13.07       5.48      21.56
C      10.65      12.32      21.39
C      13.55       6.96      15.19
C      11.64      10.86      15.11
C      15.86      10.42      14.89
C      17.50       9.38      20.72
C      11.91       6.19      21.12
C      11.76      13.06      20.90
C      17.42       9.09      19.39
C      11.73       6.49      19.80
C      12.06      13.07      19.57
C      17.51      11.08      22.54
C      13.28       5.12      22.91
C      10.29      12.31      22.75
C      17.61      12.42      22.97
C      14.36       4.30      23.33
C       9.11      11.68      23.22
C      16.50      12.14      16.57
C      14.73       5.56      16.93
C       9.87      10.65      16.84
C      16.85      12.49      17.88
C      14.85       5.07      18.23
C       9.40      10.82      18.14
C      17.11      11.46      18.85
C      13.86       5.41      19.22
C      10.17      11.59      19.08
C      10.68       1.09      18.34
C       2.10       4.28      18.68
C       8.20      10.20      18.64
C      10.83       1.41      19.66
C       2.28       3.94      19.99
C       7.88      10.20      19.96
C      17.20      13.15      20.65
C      15.20       4.34      21.00
C       8.69      10.87      20.93
C      15.20      10.20       6.81
C      13.44       5.55       6.63
C      10.97      11.69       6.69
C      17.28      11.79      20.23
C      14.03       5.06      20.59
C       9.82      11.62      20.46
C      17.31      13.44      22.03
C      15.38       4.03      22.38
C       8.41      10.84      22.32
C      16.47      10.80      16.19
C      13.62       6.33      16.55
C      11.05      11.26      16.43
C      17.68      10.67       6.80
C      12.94       3.50       7.93
C       8.65      11.08       7.43
C      17.70      10.78       5.27
C      13.17       2.54       6.76
C       8.23      10.61       6.03
C      16.72      11.10       2.12
C      13.90       2.20       3.16
C       8.62      10.17       2.66
C      16.31      11.14       7.35
C      13.91       4.71       7.83
C      10.16      10.80       7.65
C      15.29      10.08       5.29
C      13.22       4.65       5.42
C      10.47      11.49       5.25
C      16.28      11.12       4.73
C      13.92       3.27       5.61
C       9.48      10.29       5.17
I      15.80       8.05       4.65
I      11.09       4.38       4.93
I       3.44       0.55       4.38
I      10.64       2.66      22.63
I       3.38       3.21      22.93
I       7.06       9.36      22.98
I       8.43       0.95       7.96
I       3.03       5.58       8.02
I      12.11       8.45       8.26
I       7.69       0.30       4.46
I       2.67       4.53       4.54
I      11.96       8.56       4.61
Br      17.28       9.69      23.83
Br      12.10       5.88      24.21
Br      11.51      13.05      24.01
Br       3.81       7.28      18.86
Br      10.13       7.39      19.31
Br       7.28       1.40      18.98
Br      10.49       2.53      17.10
Br       3.41       3.68      17.43
Br       7.02       9.32      17.42
Br      19.00      12.12       4.59
Br      14.14       0.95       7.43
Br       7.02       9.04       6.11
O      11.19       9.54      11.80
O      14.74      11.35      11.74
O      14.83       7.07      11.89
O       1.26       1.29       1.42
O       6.96      10.04       1.02
O      17.52      12.67       0.67
O      12.55       7.12      11.84
O      12.21      11.56      12.04
O      15.89       9.39      11.83
O      11.20       9.81      14.57
O      15.11      11.29      14.31
O      14.66       7.09      14.54
O      12.42       7.37      14.79
O      12.61      11.60      14.66
O      16.04       9.22      14.47
O      13.46       9.27      13.20
O       1.51       3.21      25.25
O       7.71      11.34      25.17
O      18.04      13.84      24.87
O       8.71      13.33      24.85
O      19.10      11.86      24.70
O      13.13       3.27      25.06
O       6.59      13.71      26.35
O       8.60      11.61       0.88
O      18.33      10.54       0.53
O      12.93       1.82       1.07
O      10.23       7.59      13.24
O       3.72       2.30      26.58
