57

Al       7.22       5.61       7.35
Al       3.59       5.59       7.35
H       5.41       6.54       5.84
H       9.04       4.27       8.56
H       3.27       1.56       7.28
H       7.58       1.65       7.26
H       6.90       9.57       7.40
H      10.59       6.45      11.28
H       7.48       5.26      11.34
H       3.85       5.99       3.35
H       6.97       4.77       3.39
H       6.90       6.78       0.01
H       9.44       6.69      13.56
H       3.92       3.73       0.13
H       8.62       5.17      13.63
H       7.56       7.51      14.56
H       5.01       6.04       1.07
H      10.53       4.44      14.65
H       5.82       4.52       1.10
H      11.31       8.62       7.43
C       9.03       5.47       4.99
C       9.03       7.98       7.45
C       5.42       5.77       9.69
C       5.41       3.24       7.25
C       9.04       9.45       7.41
C       5.42       1.75       7.27
C      10.26      10.19       7.36
C       4.22       1.03       7.31
C       6.65       1.08       7.30
C       7.82      10.15       7.37
C      10.34       6.56      14.15
C       7.72       5.36      14.20
C       4.10       5.87       0.49
C       6.73       4.66       0.52
C      11.49       6.22      11.86
C      11.50       6.28      13.25
C       6.58       5.53      11.89
C       6.57       5.58      13.28
C       2.95       5.71       2.79
C       2.95       5.66       1.40
C       7.86       5.01       2.82
C       7.87       4.96       1.43
C       5.41       5.85      11.18
C       5.41       5.96      13.95
C       9.03       5.39       3.50
C       9.04       5.28       0.73
O       7.88       5.48       5.56
O      10.19       7.39       7.48
O       4.27       5.74       9.12
O       6.55       3.82       7.25
O       6.56       5.73       9.12
O       4.26       3.80       7.25
O      10.17       5.53       5.56
O       7.91       7.39       7.44
O       5.40       6.21       6.75
O       9.04       5.02       7.94
O      11.48       9.60       7.38
