240

Zn      10.22      14.24      16.36
Zn      -0.02       0.02       1.44
Zn       1.98       4.71       4.39
Zn       8.23       9.55      13.41
Zn       1.95       4.74       7.24
Zn       8.25       9.52      10.56
H      10.95      10.06      15.68
H      -0.75       4.20       2.12
H      11.34       7.65      15.65
H      -1.14       6.61       2.15
H      -1.47       8.50       2.17
H      11.68       5.76      15.63
H      -1.87      10.93       2.17
H      12.07       3.33      15.63
H       5.86      14.24      15.51
H       4.34       0.02       2.29
H       6.07      -0.73      15.60
H       4.14      14.99       2.19
H       6.05      14.81       2.10
H       4.16      -0.55      15.70
H       8.50      14.65       1.96
H       1.70      -0.39      15.84
H      10.66      12.24      14.14
H      -0.45       2.02       3.66
H      11.07      12.34      11.66
H      -0.86       1.92       6.14
H      -1.64       1.50      11.96
H      11.84      12.76       5.84
H      -2.04       1.23      14.43
H      12.24      13.03       3.37
H       6.27       4.86       8.07
H       3.94       9.40       9.73
H       8.75       4.79       7.98
H       1.46       9.47       9.82
H       8.59       5.02       3.68
H       1.62       9.24      14.12
H       6.12       5.15       3.79
H       4.09       9.11      14.01
H      12.97       5.24       3.62
H      -2.77       9.02      14.18
H      10.53       5.50       3.72
H      -0.32       8.76      14.08
H      10.58       4.06       7.80
H      -0.38      10.20      10.00
H      13.05       3.96       7.72
H      -2.84      10.30      10.08
H       0.44       8.79       3.83
H       9.77       5.47      13.97
H      -0.10      11.22       3.85
H      10.30       3.04      13.95
H       1.64      11.54       7.79
H       8.57       2.72      10.01
H       2.10       9.09       7.76
H       8.11       5.17      10.04
H       2.44       0.46       7.99
H       7.76      13.80       9.81
H       0.20      13.15       7.99
H      10.00       1.11       9.81
H       0.56      13.25       3.68
H       9.65       1.01      14.12
H       2.73       0.52       3.70
H       7.48      13.74      14.10
H       2.19       6.87       2.45
H       8.01       7.39      15.35
H       0.02       6.28      17.76
H      10.19       7.98       0.04
H       0.26       1.99      17.43
H       9.94      12.27       0.37
H       2.44       2.75       2.12
H       7.77      11.51      15.68
H       1.32       2.63       9.17
H       8.88      11.63       8.63
H       0.77       2.40      11.61
H       9.44      11.86       6.19
H       1.29       6.68      11.97
H       8.91       7.58       5.83
H       1.84       6.72       9.51
H       8.37       7.54       8.29
C      -1.90      11.10       0.03
C      12.10       3.16      17.77
C      11.07       9.52      16.62
C      -0.86       4.74       1.18
C      11.29       8.15      16.61
C      -1.08       6.11       1.19
C      -1.44       8.30       0.01
C      11.64       5.96      17.79
C      -1.55       9.02       1.22
C      11.76       5.24      16.58
C      -1.77      10.39       1.23
C      11.98       3.87      16.57
C      -2.18      12.57       0.03
C      12.38       1.69      17.77
C       6.11      14.00      17.63
C       4.09       0.26       0.17
C       5.36      14.18      16.47
C       4.85       0.09       1.33
C       3.97      14.27      16.53
C       6.23      -0.01       1.27
C       3.29      14.20      17.76
C       6.92       0.06       0.04
C       6.53      14.88       1.12
C       3.68      -0.62      16.68
C       7.91      14.79       1.06
C       2.29      -0.53      16.74
C       7.61      13.96      17.58
C       2.60       0.30       0.22
C      10.76      13.19      13.62
C      -0.55       1.07       4.18
C      10.99      13.25      12.25
C      -0.79       1.01       5.55
C      -4.23      14.50      11.63
C      14.44      -0.24       6.17
C      -1.70       0.51      12.41
C      11.91      13.75       5.39
C      -1.93       0.37      13.77
C      12.14      13.89       4.03
C      -4.03      14.60      10.18
C      14.24      -0.34       7.62
C       6.04       5.01       5.93
C       4.16       9.25      11.87
C       6.79       4.90       7.11
C       3.41       9.36      10.69
C       8.18       4.85       7.05
C       2.02       9.41      10.75
C       8.87       4.88       5.82
C       1.34       9.38      11.98
C       8.10       5.00       4.65
C       2.11       9.26      13.15
C       6.71       5.07       4.71
C       3.49       9.19      13.09
C       4.54       5.00       5.97
C       5.66       9.26      11.83
C      13.17       4.59       5.66
C      -2.96       9.67      12.14
C      12.44       5.00       4.54
C      -2.24       9.26      13.26
C      11.06       5.12       4.60
C      -0.85       9.14      13.20
C      10.35       4.78       5.77
C      -0.14       9.48      12.03
C      11.09       4.35       6.88
C      -0.89       9.91      10.92
C      12.48       4.27       6.84
C      -2.27       9.99      10.96
C      -0.65       4.53       5.63
C      10.86       9.73      12.17
C       1.28       8.79       5.80
C       8.92       5.47      12.00
C       0.68       9.40       4.70
C       9.52       4.86      13.10
C       0.39      10.76       4.71
C       9.81       3.50      13.09
C       0.71      11.56       5.83
C       9.49       2.70      11.97
C       1.34      10.94       6.93
C       8.87       3.32      10.87
C       1.61       9.58       6.92
C       8.60       4.68      10.88
C       1.56       7.32       5.81
C       8.64       6.94      11.99
C       2.57       0.65       5.85
C       7.63      13.61      11.95
C       2.61      -0.07       7.05
C       7.60      14.33      10.75
C       0.20      13.70       7.04
C      10.00       0.56      10.76
C       0.43      13.01       5.84
C       9.78       1.25      11.96
C       0.38      13.75       4.64
C       9.83       0.51      13.16
C       2.78      -0.03       4.64
C       7.43      14.29      13.16
C       2.31       2.13       5.85
C       7.90      12.13      11.95
C       2.33       6.02       1.78
C       7.88       8.24      16.02
C       2.49       6.18       0.41
C       7.71       8.08      17.39
C       0.16       4.15      17.41
C      10.04      10.11       0.39
C       2.63       3.78       0.23
C       7.57      10.48      17.57
C       2.47       3.70       1.60
C       7.74      10.56      16.20
C       0.26       4.27      15.95
C       9.95       9.99       1.85
C       0.64       4.45      13.40
C       9.57       9.81       4.40
C       1.31       3.49       9.84
C       8.90      10.77       7.96
C       1.00       3.37      11.18
C       9.20      10.89       6.62
C       0.99       4.53      11.98
C       9.22       9.73       5.82
C       1.30       5.76      11.38
C       8.91       8.50       6.42
C       1.60       5.79      10.03
C       8.61       8.47       7.77
N      10.62      14.31      14.36
N      -0.42      -0.05       3.44
N      11.18      13.47       9.44
N      -0.98       0.79       8.36
N      -1.14       0.69       9.66
N      11.34      13.57       8.14
N       2.31       4.81       2.36
N       7.90       9.45      15.44
N       0.35       5.51      15.41
N       9.86       8.75       2.39
N       0.54       5.60      14.11
N       9.66       8.66       3.69
N       0.33       3.23      13.91
N       9.88      11.03       3.89
N       0.14       3.14      15.21
N      10.07      11.12       2.59
N       1.61       4.68       9.27
N       8.60       9.58       8.53
O      10.52      12.25      16.70
O      -0.32       2.01       1.10
O      -2.26      13.15       1.17
O      12.46       1.11      16.63
O       8.17      13.96      16.43
O       2.04       0.30       1.37
O      10.68      14.82       0.90
O      -0.47      -0.56      16.90
O       3.94       5.14       4.86
O       6.27       9.12      12.94
O       3.99       4.82       7.11
O       6.22       9.44      10.69
O      -0.08       4.39       4.49
O      10.29       9.87      13.31
O      -0.06       4.63       6.75
O      10.26       9.63      11.05
O       1.49       6.71       4.69
O       8.72       7.55      13.11
O       1.85       6.79       6.93
O       8.36       7.47      10.87
O       2.33       2.72       4.72
O       7.87      11.54      13.08
O       2.08       2.68       6.97
O       8.13      11.58      10.83
