138

Al       5.91       9.13      12.76
Al       2.58       9.11      12.74
Al       2.17      23.15       0.01
Al       5.50      -4.91      25.49
H       6.24       5.42       4.36
H       2.91      12.82      21.13
H       6.39       6.81       6.24
H       3.06      11.43      19.26
H       2.95       5.16       7.23
H       6.28      13.08      18.27
H       2.27       6.50       6.30
H       5.60      11.74      19.19
H       2.11       5.13       4.41
H       5.44      13.11      21.08
H       2.82       3.79       5.33
H       6.15      14.44      20.17
H       6.37       3.79       8.46
H       3.03      14.45      17.03
H       1.45       3.58       8.50
H       4.79      14.66      17.00
H       6.24       2.41       6.58
H       2.91      15.83      18.91
H       5.35       5.70       7.14
H       2.02      12.54      18.36
H       5.21       4.31       5.26
H       1.88      13.93      20.23
H       1.33       2.20       6.62
H       4.66      16.04      18.88
H       2.70      -2.10      22.71
H       6.04      20.34       2.79
H       2.82      -0.22      21.05
H       6.15      18.45       4.45
H       5.19       0.04      21.06
H       1.86      18.20       4.44
H       5.09      -1.84      22.73
H       1.76      20.08       2.77
H       2.97       5.72      15.00
H       6.30      12.52      10.49
H       5.51       6.48      15.92
H       2.18      11.75       9.57
H       5.57       4.64      17.64
H       2.24      13.59       7.86
H       3.92       3.96      16.06
H       0.59      14.27       9.43
H       4.26       7.56      12.02
H       0.93      10.68      13.48
H       3.82       1.61       0.64
H       0.49      16.62      24.86
C       4.24      10.94      11.14
C       0.91       7.30      14.35
C       4.24      10.51      14.74
C       0.91       7.73      10.76
C       6.27       5.76       6.53
C       2.93      12.48      18.96
C       2.11       5.45       6.59
C       5.44      12.79      18.91
C       2.01       4.54       5.34
C       5.35      13.70      20.16
C       0.52       2.23       3.16
C       3.86      16.01      22.33
C       0.80       5.34       7.42
C       4.14      12.89      18.08
C       6.17       4.84       5.29
C       2.84      13.40      20.20
C       0.65       3.80       5.31
C       3.99      14.44      20.18
C       0.53       2.95       6.61
C       3.86      15.29      18.89
C       0.61       3.87       7.85
C       3.95      14.37      17.64
C       0.58       2.94       4.15
C       3.91      15.30      21.35
C       0.87       6.19       8.59
C       4.20      12.05      16.90
C       0.89       6.90       9.58
C       4.22      11.34      15.91
C       1.80      -1.62      22.33
C       5.13      19.86       3.16
C       1.86      -0.58      21.41
C       5.19      18.82       4.08
C       0.68       0.02      20.96
C       4.01      18.21       4.54
C       6.10      -0.44      21.42
C       2.76      18.68       4.08
C       6.04      -1.48      22.34
C       2.71      19.72       3.15
C       0.56      -2.07      22.82
C       3.89      20.30       2.68
C       0.90       3.08      18.30
C       4.23      15.16       7.19
C       0.75       1.17      20.04
C       4.08      17.07       5.46
C       2.10       4.41      16.50
C       5.44      13.83       8.99
C       2.08       5.46      15.58
C       5.41      12.77       9.92
C       0.91       6.20      15.36
C       4.24      12.04      10.13
C       6.41       5.89      16.09
C       3.08      12.34       9.41
C       6.44       4.88      17.03
C       3.11      13.36       8.46
C       0.95       4.12      17.26
C       4.28      14.12       8.23
C       3.84      16.83      23.52
C       0.51       1.41       1.98
C       3.85      21.38       1.64
C       0.51      -3.14      23.85
N       6.26       1.63      19.50
N       2.92      16.61       5.99
N       6.33       2.59      18.61
N       3.00      15.64       6.88
N       2.03       2.76      18.98
N       5.36      15.48       6.51
N       1.95       1.77      19.86
N       5.28      16.46       5.63
O       3.11      10.18      14.25
O       6.44       8.06      11.25
O       5.37      10.55      11.57
O       2.04       7.69      13.93
O       5.38      10.19      14.27
O       2.05       8.05      11.22
O       6.43       7.73      13.98
O       3.10      10.51      11.51
O       4.25       8.31      12.63
O       0.91       9.93      12.87
O       4.97      21.80       1.22
O       1.64      -3.57      24.28
O       2.70      17.13      24.00
O       6.03       1.10       1.49
O       2.70      21.76       1.24
O       6.03      -3.53      24.26
O       1.64       1.06       1.51
O       4.97      17.17      23.98
O       3.83       0.81       0.10
O       0.50      17.43      25.40
O       3.21       3.64      16.66
O       6.55      14.60       8.84
