158

Zr       0.00       0.00       2.62
Zr       8.79       8.79      14.85
Zr       2.77      17.58       0.00
Zr      -0.00      14.80       0.00
Zr       6.02      -8.79      17.47
Zr       8.80      -6.01      17.47
Cu      10.09      -0.00       7.88
Cu      -0.00       7.49       7.88
Cu       7.49      -0.00       7.88
Cu      -0.00      10.09       7.88
Cu       1.30       8.79       9.60
Cu      -1.30       8.79       9.60
Cu       8.79      -1.30       9.60
Cu       8.79       1.30       9.60
H       1.89       1.89       1.74
H       1.88      15.70       1.74
H      15.69      15.70       1.74
H      15.70       1.89       1.74
H      -6.91       6.90      15.73
H       6.91      -6.91      15.73
H       6.91       6.90      15.73
H      -6.90      -6.91      15.73
H      -4.05      -6.73      17.47
H      -6.72       4.05      17.47
H      12.84      15.52       0.00
H      15.52       4.74       0.00
H      -4.05       6.72      17.47
H      12.84       2.07       0.00
H       6.73       4.05      17.47
H       2.07       4.74       0.00
H      13.09      -0.00       7.88
H       0.00       4.50       7.88
H       4.50      -0.00       7.88
H      -0.00      13.09       7.88
H       4.29       8.79       9.59
H      -4.30       8.79       9.59
H       8.79      -4.30       9.59
H       8.79       4.29       9.59
H      -2.69      -0.00       6.12
H       0.00       2.69       6.12
H       2.69      -0.00       6.12
H       0.00      -2.69       6.12
H       6.10       8.79      11.35
H      11.48       8.79      11.35
H       8.79      11.48      11.35
H       8.79       6.10      11.35
H      11.78       0.00       3.14
H      -0.00       5.80       3.14
H       5.80       0.00       3.14
H      -0.00      11.78       3.14
H       2.99       8.79      14.33
H      -2.99       8.79      14.33
H       8.80      -2.99      14.33
H       8.79       2.99      14.33
H      10.10       0.00       5.02
H      -0.00       7.48       5.02
H       7.48       0.00       5.02
H      -0.00      10.10       5.02
H       1.31       8.79      12.45
H      -1.31       8.79      12.45
H       8.79      -1.31      12.45
H       8.79       1.31      12.45
C      12.85      -0.00       6.82
C       0.00       4.73       6.82
C       4.73      -0.00       6.82
C      -0.00      12.85       6.82
C       4.06       8.79      10.66
C      -4.06       8.79      10.66
C       8.79      -4.06      10.66
C       8.79       4.06      10.66
C      13.84      -0.00       5.84
C       0.00       3.74       5.84
C       3.74      -0.00       5.84
C      -0.00      13.84       5.84
C       5.05       8.79      11.63
C      -5.05       8.79      11.63
C       8.79      -5.05      11.63
C       8.79       5.05      11.63
C      13.47      -0.00       4.49
C      -0.00       4.12       4.49
C       4.12      -0.00       4.49
C      -0.00      13.47       4.50
C       4.67       8.79      12.98
C      -4.68       8.79      12.98
C       8.79      -4.68      12.98
C       8.79       4.67      12.98
C      12.10       0.00       4.18
C      -0.00       5.48       4.18
C       5.48       0.00       4.18
C      -0.00      12.10       4.18
C       3.31       8.79      13.29
C      -3.31       8.79      13.29
C       8.80      -3.31      13.29
C       8.79       3.31      13.29
C      11.18      -0.00       5.22
C      -0.00       6.41       5.22
C       6.41       0.00       5.22
C      -0.00      11.18       5.22
C       2.38       8.79      12.26
C      -2.39       8.79      12.26
C       8.79      -2.39      12.26
C       8.79       2.38      12.26
C      14.47      -0.00       3.38
C      -0.00       3.12       3.38
C       3.12      -0.00       3.38
C      -0.00      14.47       3.38
C       5.67       8.79      14.09
C      -5.68       8.79      14.09
C       8.80      -5.68      14.09
C       8.79       5.67      14.09
I      11.11       0.00      10.32
I      -0.00       6.47      10.32
I       6.47      -0.00      10.32
I      -0.00      11.11      10.32
I       2.32       8.79       7.15
I      -2.32       8.79       7.15
I       8.79      -2.32       7.15
I       8.79       2.32       7.15
N      11.54      -0.00       6.51
N      -0.00       6.04       6.51
N       6.05      -0.00       6.52
N      -0.00      11.54       6.52
N       2.75       8.79      10.96
N      -2.75       8.79      10.96
N       8.79      -2.75      10.96
N       8.79       2.75      10.96
O      14.03      -0.00       2.20
O      -0.00       3.56       2.20
O       3.56      -0.00       2.20
O      -0.00      14.03       2.20
O       5.23       8.79      15.27
O      -5.23       8.79      15.27
O       8.79      -5.24      15.27
O       8.79       5.23      15.27
O      15.71      -0.00       3.72
O      -0.00       1.87       3.72
O       1.87       0.00       3.72
O      -0.01      15.71       3.72
O       6.92       8.79      13.75
O      -6.92       8.79      13.76
O       8.80      -6.92      13.75
O       8.79       6.92      13.76
O       1.28       1.28       1.28
O       1.28      16.30       1.28
O      16.30      16.30       1.28
O      16.30       1.28       1.28
O      -7.51       7.51      16.20
O       7.51      -7.51      16.20
O       7.51       7.51      16.20
O      -7.51      -7.51      16.20
O      -4.88      -7.20      17.47
O       1.58      13.68       0.00
O      13.68      16.00       0.00
O       7.21      -4.89      17.47
O       3.90      16.00       0.00
O       4.89      -7.21      17.47
O       7.20       4.89      17.47
O       1.59       3.90       0.00
