186

Zn      12.70      14.95       8.77
Zn      11.43      17.81       9.38
Zn      13.29      16.47      11.53
Zn      14.56      17.48       8.78
Zn      -3.34      13.11       0.84
Zn       5.45      22.20      17.32
Zn      -2.07      10.23       0.23
Zn      18.70      10.57       0.84
H       6.29      29.80      17.32
H       5.20      27.78      13.64
H      13.31      10.91      15.25
H      12.69       8.83      11.49
H      18.11       4.72       4.04
H      22.40       4.41       3.47
H      10.90      23.75       6.35
H      15.09      23.21       5.38
H       1.96      15.36       4.24
H       3.75      11.53       3.26
H       5.70      16.60       6.15
H       7.31      12.61       5.58
H      24.03      20.52      13.60
H      22.24      19.30      17.36
H      20.29      19.57      11.53
H      18.69      17.92      15.21
H      16.69      17.04       6.34
H      17.68      17.17       4.94
H      16.31      11.20       2.98
H      14.81      11.43       3.79
H      19.48      15.00       3.27
H      19.30      15.98       4.67
H      14.02      12.86       6.64
H      14.70      11.51       5.82
H      11.97      17.16      14.43
H      11.29      17.13      16.01
H       6.51      21.14      14.42
H       6.69      20.49      12.84
H       9.69      19.36      17.79
H      11.18      18.80      17.16
H       9.31      19.64      11.05
H       8.32      20.89      11.69
H       6.30      26.77      19.08
H       5.19      24.66      15.26
H      13.34      14.02      13.61
H      12.65      11.88       9.73
H      18.03       7.81       2.36
H      22.48       7.47       1.76
H      10.82      20.67       8.05
H      15.17      20.14       7.08
H      -0.99      14.50       2.54
H       0.84      10.52       1.57
H       8.60      17.61       7.86
H      10.27      13.47       7.26
H      26.98      21.50      15.24
H      25.15      20.19      19.12
H      17.39      18.66       9.76
H      15.72      16.96      13.58
C       9.94      15.70       7.85
C      10.97      18.16      12.30
C      13.00      13.47      11.38
C      16.05      17.65      11.38
C      15.02      15.20       6.93
C      13.00      19.88       7.85
C       5.74      25.18      17.46
C       7.77      20.50      16.55
C      -0.58      12.35       1.76
C      20.25       8.17       1.77
C      18.23      12.86       2.68
C      26.57      21.00      17.47
C      15.83      14.60       5.86
C      17.42      13.45       3.76
C      16.94      15.32       5.30
C      16.27      12.76       4.27
C      17.76      14.72       4.31
C      15.53      13.30       5.35
C      10.16      18.75      13.37
C       8.58      19.91      15.47
C      10.46      18.48      14.75
C       8.23      20.12      14.10
C       9.72      19.11      15.78
C       9.05      19.60      13.07
C       5.74      26.45      16.76
C       6.05      27.68      17.45
C       6.05      28.89      16.77
C       5.74      28.93      15.40
C       5.44      27.75      14.70
C       5.44      26.53      15.36
C       5.74      30.17      14.72
C      13.00       8.49      14.13
C      13.00       9.73      13.45
C      13.17      10.92      14.17
C      13.18      12.14      13.50
C      13.00      12.20      12.08
C      12.82      10.97      11.37
C      12.82       9.75      12.05
C      20.25       6.90       2.47
C      19.04       6.34       2.99
C      19.04       5.12       3.66
C      20.25       4.42       3.83
C      21.46       4.94       3.34
C      21.47       6.16       2.66
C      20.25       3.18       4.52
C      13.00      24.86       5.10
C      13.00      23.62       5.79
C      11.81      23.17       6.40
C      11.81      21.95       7.07
C      13.00      21.15       7.15
C      14.19      21.65       6.52
C      14.18      22.86       5.85
C       0.63      12.73       2.46
C       0.75      14.02       3.10
C       1.91      14.38       3.77
C       2.99      13.49       3.83
C       2.92      12.22       3.22
C       1.76      11.84       2.55
C       4.17      13.86       4.51
C       5.19      14.19       5.10
C       6.37      14.56       5.78
C       6.50      15.87       6.28
C       7.66      16.25       6.95
C       8.73      15.32       7.15
C       8.57      13.99       6.63
C       7.40      13.62       5.96
C      25.36      20.62      16.77
C      25.25      20.77      15.34
C      24.08      20.40      14.68
C      23.00      19.87      15.40
C      23.08      19.71      16.80
C      24.24      20.07      17.48
C      21.82      19.49      14.72
C      20.80      19.16      14.13
C      19.62      18.79      13.45
C      19.49      19.07      12.08
C      18.34      18.70      11.40
C      17.26      18.04      12.08
C      17.43      17.77      13.48
C      18.59      18.14      14.15
N      17.33      16.59       5.70
N      15.83      11.53       3.81
N      18.85      15.48       3.91
N      14.49      12.51       5.81
N      11.51      17.67      15.18
N       7.14      20.86      13.67
N      10.17      18.84      17.07
N       8.66      19.94      11.78
O      13.00      16.68       9.62
O      10.89      14.83       8.00
O      10.64      18.37      11.07
O      13.19      14.57      12.06
O      10.04      16.91       8.31
O      12.80      13.49      10.10
O      12.00      17.43      12.61
O      15.10      17.06      12.04
O      15.35      16.35       7.40
O      15.95      17.91      10.12
O      14.00      14.55       7.38
O      11.89      19.45       8.38
O      14.10      19.20       7.93
O      -3.63      11.37       0.00
O       6.02      25.16      18.73
O       6.76      21.25      16.24
O      -0.65      11.17       1.23
O       5.47      24.10      16.81
O      -1.56      13.19       1.69
O       8.07      20.25      17.78
O      21.37       8.63       1.31
O      17.92      11.68       2.24
O      19.13       8.81       1.62
O      19.23      13.52       2.21
O      27.55      21.52      16.79
O      26.64      20.83      18.75
O       6.35      27.71      18.77
O       5.14      25.43      14.64
O      13.35      13.25      14.25
O      12.64      10.93      10.03
O      17.85       6.96       2.85
O      22.66       6.61       2.21
O      10.64      21.56       7.63
O      15.35      20.96       6.55
O      -0.26      14.92       3.07
O       1.74      10.62       1.98
O       7.72      17.52       7.41
O       9.52      13.04       6.76
O      26.25      21.27      14.60
O      24.25      19.89      18.81
O      18.27      18.99      10.08
O      16.47      17.15      14.21
