66

Zn       7.94       5.63       8.72
Zn      -2.97       8.45       8.55
H       5.63       4.25       7.58
H      -0.68       9.86       9.70
C       7.89       6.86       6.07
C      -2.97       7.21      11.21
C       8.61       5.80       3.89
C       7.26       8.04      13.32
C      -1.11      10.67       9.11
C       6.07       3.42       8.14
C      -0.53      11.93       9.08
C       5.51       2.16       8.14
C      -1.08      12.96       8.27
C       6.09       1.11       8.89
C      -2.21      12.61       7.51
C       7.24       1.43       9.62
C      -2.75      11.33       7.62
C       7.77       2.72       9.54
C       5.64       7.57       8.86
C      -0.67       6.49       8.45
C       4.16       7.79       8.89
C       0.80       6.25       8.46
C       3.19       6.84       8.96
C       1.76       7.09       8.94
C       7.91       6.80       4.57
C      -3.11       7.22      12.71
C       7.31       7.81       3.80
C      -2.40       6.33      13.52
C       7.46       7.86       2.42
C      -2.65       6.22      14.89
C       8.23       6.89       1.74
C      -3.64       7.02      15.51
C       8.77       5.84       2.51
C       7.01       7.95      14.69
N       8.51       6.83       0.36
N       7.37       7.06      16.87
N      -2.22      10.40       8.39
N       7.21       3.68       8.82
N      -0.54      14.24       8.07
N       5.54      -0.17       9.09
O       7.50       5.84       6.70
O      -2.93       8.34      10.62
O      -3.01       7.95       6.56
O      -2.94       6.06      10.67
O       6.05       6.39       9.09
O      -1.05       7.69       8.62
O       6.34       8.60       8.60
O      -1.41       5.47       8.27
F       1.40       8.29       9.45
F       3.53       5.53       9.02
F      -3.84      11.02       6.92
F       8.89       3.02      10.20
F       1.19       5.06       7.94
F       3.78       9.08       8.75
F      -1.42       5.56      13.00
F       6.57       8.76       4.40
F      -1.90       5.38      15.61
F       6.82       8.84       1.75
F      -1.82       4.88       1.92
F       6.07       8.75      15.23
F      -2.11       4.81       4.58
F       6.52       8.90      12.60
F       4.37       1.96       7.46
F       0.59      12.14       9.79
F      -2.79      13.52       6.71
F       7.86       0.50      10.36
