86

Zn       5.79       5.77       8.68
Zn       5.82       8.67       8.73
H       4.20      10.77       7.71
H       3.95      13.23       7.74
H       7.48      13.37      10.24
H       4.27       1.03       7.14
H       7.54       1.25       9.97
H       7.31       3.72       9.88
H       7.62      -0.92       9.72
H       4.02      15.36       7.85
H       5.20       9.44       4.62
H       5.22       9.68       2.16
H       6.54       5.60       1.83
H       5.01       8.94      15.52
H       6.26       4.82      15.30
H       6.27       4.99      12.84
H       6.23       4.88      17.39
H       5.30       9.68       0.01
H      10.30       9.21       8.17
H       8.52      10.14       9.54
H       7.48       9.90      10.93
H       8.54      11.35      10.87
H       3.57       3.10       6.09
H       4.20       4.68       6.64
H       2.94       3.86       7.57
H       5.83       4.45       4.92
H       7.47       5.04       5.11
H       6.97       4.29       3.56
H       4.48      10.15      13.68
H       4.21       9.37      12.10
H       5.79      10.03      12.48
C       5.77       7.36       6.13
C       3.20       7.41       8.86
C       5.79       7.05      11.29
C       8.41       7.11       8.66
C       4.91      11.39       8.25
C       4.77      12.77       8.28
C       5.71      13.53       9.00
C       6.73      12.83       9.66
C       6.81      11.43       9.59
C       5.68      14.99       9.10
C       5.95      -0.55       8.48
C       4.97       1.59       7.77
C       5.91       0.91       8.55
C       6.78       1.69       9.33
C       6.65       3.07       9.30
C       4.88       2.99       7.78
C       5.84       7.39       4.63
C       5.49       8.60       3.99
C       5.50       8.73       2.61
C       5.88       7.64       1.80
C       6.24       6.45       2.45
C       6.23       6.28       3.84
C       5.93       7.68       0.35
C       5.60       6.87      17.06
C       5.31       8.07      14.93
C       5.65       6.88      15.61
C       6.01       5.76      14.83
C       6.02       5.85      13.45
C       5.71       7.05      12.78
C       5.34       8.19      13.53
C       0.87       6.25       9.21
C      10.70       8.24       8.47
C       1.71       7.33       8.96
C       9.89       7.15       8.71
C      12.06       7.90       8.63
C      -0.50       6.56       9.00
C       7.91      10.68      10.28
C       3.85       3.70       6.96
C       6.65       4.94       4.39
C       4.93       9.50      12.92
S       0.81       8.74       8.52
S      10.77       5.71       9.12
N       5.90      10.73       8.88
N       5.73       3.71       8.54
N       1.29       4.95       9.68
O       6.01       6.25       6.71
O       5.48       8.45       6.73
O       3.72       8.55       9.04
O       3.78       6.33       8.54
O       6.02       8.16      10.70
O       5.63       5.93      10.70
O       7.86       5.99       8.91
O       7.82       8.21       8.38
O       0.55       3.99       9.35
O       2.30       4.86      10.39
