144

Zn       0.37      -3.22       9.52
Zn       9.15      10.60       9.36
Zn      -7.92      12.09       7.41
Zn      -1.97      -4.67      11.48
H       1.31      -1.10       6.93
H      10.50       7.49       9.73
H      -4.47      11.94       7.37
H      -1.72      -6.46      14.43
H      -8.00       9.33      11.43
H       2.66      -4.78      11.27
H       0.32      -5.23      13.77
H      -5.56       9.98       8.47
H      13.68       2.72      11.43
H      14.43       0.39      11.47
H      -1.18       1.56       9.72
H       5.87       9.83       9.68
H      -1.93       3.91       9.69
H      -3.32       5.29       8.55
H      -4.58       7.33       7.98
H      -6.96       6.84      11.54
H      -5.68       4.82      12.12
H       1.25       9.62      10.63
H       3.70       9.70      10.46
H      11.98      -4.12      10.84
H       9.53      -4.20      11.03
H       7.57      -4.83      12.22
H      10.45      10.87       4.43
H       5.19      -4.51      11.66
H      -2.90      10.52       8.67
H      -0.51      10.23       9.20
H       9.81       9.26       3.02
H       8.88       8.10       1.04
H       5.73      -2.38      15.62
H       4.33      -2.53      13.56
H       5.98       9.00       4.99
H       2.78      -4.60      17.82
H       5.08       7.77       3.01
H      -3.59      -1.68      12.23
H       1.38      -4.77      15.78
H       0.38      -7.11      15.83
H       0.84      -8.54      17.82
H       3.62       0.12       3.07
H       2.70      -0.97       5.11
H      -8.28       7.47      13.36
H      -7.68      16.15       0.69
H      -7.81       6.05      15.37
H       7.09       9.92       7.00
H      -1.27      -0.78       8.69
H      14.38      -4.12      10.90
H      10.57      13.57       4.93
H       2.49      -1.93      12.00
C       0.86      -2.05       6.64
C       5.29      11.90      10.40
C       8.51      10.04       5.24
C      -2.61      -0.62      10.50
C       1.81      -2.73      12.27
C      11.17       8.27       9.36
C      -4.99      12.33       8.24
C      -1.30      -6.89      13.52
C      -8.63      10.02      11.99
C       2.75      -5.05      10.23
C       0.69      -4.41      13.17
C       6.13      10.85       9.98
C      -6.52       9.54       8.70
C       1.81      -3.59      13.39
C      -6.81       8.28       9.26
C      -4.55      12.46       9.57
C      -8.78      10.15      13.38
C      -4.69       2.48      11.08
C      -4.27       1.16      11.09
C      -3.02       0.79      10.56
C      -2.19       1.81      10.08
C      -2.61       3.14      10.06
C       9.74      10.73       5.23
C      -3.88       3.50      10.53
C      -4.11       5.63       9.22
C      -4.82       6.79       8.90
C      -5.91       7.20       9.68
C      -6.17       6.49      10.87
C      -5.45       5.35      11.19
C      -4.45       4.85      10.34
C       1.76      10.59      10.67
C       3.14      10.63      10.57
C       3.84      11.85      10.60
C      -2.95      -1.68      11.36
C      11.48      -5.08      10.81
C      10.09      -5.13      10.93
C       1.00      11.76      10.82
C       7.12      -5.42      11.43
C       5.77      -5.25      11.12
C      -3.21      12.13      10.07
C      -2.44      11.14       9.44
C      -1.10      10.96       9.75
C      -0.47      11.77      10.71
C       2.72      -3.61      14.53
C       8.02      10.26       6.54
C       2.33      -4.25      15.74
C       3.11      -4.16      16.88
C       4.32      -3.43      16.85
C       4.77      -2.91      15.63
C       3.98      -2.98      14.49
C       8.26       8.30       1.91
C       8.76       8.96       3.01
C       6.91       7.90       1.90
C       7.95       9.27       4.14
C       6.62       8.80       4.13
C      -1.75      -1.22       9.56
C       6.12       8.11       3.04
C       1.12      -2.03       4.10
C      -7.79      15.80       2.81
C      -7.24      16.35       1.66
C       2.23      -0.87       1.75
C       2.77      -0.57       3.01
C       2.24      -1.16       4.14
C       0.70      -8.98      16.83
C       0.42      -8.20      15.72
C      -7.69       7.73      16.71
C      14.57      -5.14      10.58
C      -8.23       9.33      14.46
C      -8.09       7.94      14.33
C      -7.83       7.14      15.44
C      -8.42      14.31       5.62
C       0.62      -2.58       5.35
N       0.40      -2.90       7.57
N      10.67       9.43       8.89
N      -6.24      12.83       8.12
N      17.71      -6.44      12.31
N       9.98      10.93      11.35
N       1.74      -4.83       9.36
N       0.07      -4.07      12.03
N      -7.66      10.23       8.50
N       5.07      -3.08      17.99
N       6.23       7.38       0.78
N       2.69      -0.14       0.64
N       7.40      11.27       9.95
N      -7.76       6.86      17.82
N       9.95      11.29       6.44
N      -2.32      -2.80      10.96
N       8.89      11.00       7.26
N      -1.58      -2.53       9.85
N      15.84      -5.53      10.32
N      -0.15      -3.99       6.95
N       0.76      -3.02      11.48
Cl      10.18      14.80       2.61
