82

Zn       5.18       5.98       8.90
Zn       5.16       8.77       8.99
H       3.67      10.98       7.61
H       3.63      13.46       7.62
H       6.81      13.25      10.59
H       6.68      10.84      10.43
H       3.58       1.51       7.14
H       6.73       1.27      10.14
H       6.68       3.74      10.21
H       3.67       3.92       7.38
H       5.20       9.70       4.73
H       5.23       9.81       2.27
H       5.22       5.46       2.17
H       5.19       5.43       4.58
H       5.14       9.31      15.74
H       5.12       4.97      15.58
H       5.15       5.11      13.12
H       5.16       9.39      13.33
H       8.22       9.21       7.05
H       9.47      10.72       5.55
H       2.14       9.11       6.99
H       0.91      10.66       5.51
H       0.89       5.72      10.13
H       9.44       5.74      10.13
H       6.63      14.88      10.56
H       3.71      -0.14       7.20
H       5.21       5.74       0.59
H       5.14       9.02      17.30
C       5.16       7.51       6.31
C       2.55       7.32       8.85
C       5.18       7.33      11.57
C       7.79       7.35       8.87
C       4.34      11.55       8.25
C       4.33      12.94       8.26
C       5.21      13.65       9.11
C       6.07      12.85       9.90
C       6.02      11.46       9.83
C       5.27      15.11       9.22
C       5.10      -0.37       8.52
C       4.30       1.91       7.86
C       5.16       1.10       8.64
C       6.03       1.80       9.50
C       6.01       3.18       9.55
C       4.33       3.29       7.97
C       5.18       7.56       4.82
C       5.20       8.78       4.14
C       5.22       8.84       2.75
C       5.22       7.66       1.96
C       5.21       6.44       2.68
C       5.19       6.38       4.06
C       5.23       7.65       0.49
C       5.12       7.11      17.39
C       5.14       8.35      15.22
C       5.13       7.11      15.92
C       5.14       5.94      15.11
C       5.15       6.02      13.72
C       5.17       7.26      13.06
C       5.16       8.42      13.84
C       9.29       7.37       8.76
C       9.98       8.29       7.91
C      10.00       6.45       9.52
C       9.31       9.19       7.05
C      10.01      10.04       6.21
C       1.06       7.34       8.74
C       0.34       6.44       9.51
C       0.37       8.27       7.90
C       1.06       9.14       7.01
C       0.37      10.01       6.19
N       5.17      10.82       9.02
N       5.17       3.93       8.80
O       5.18       6.36       6.86
O       5.14       8.63       6.93
O       3.14       8.44       8.97
O       3.11       6.17       8.83
O       5.21       8.49      11.04
O       5.17       6.22      10.93
O       7.23       6.21       8.90
O       7.20       8.48       8.95
O       6.76      -0.77      10.12
O       3.62      15.52       7.61
O       5.11       4.78      17.63
O       5.24       9.98       0.25
