154

Zn       9.66       8.90      14.42
Zn       6.90       8.87      14.44
Zn       6.92       8.85      25.45
Zn       9.68       8.88      25.46
H       4.78      10.29      16.00
H       4.76       7.42      12.97
H      11.78      10.28      16.00
H      11.80       7.47      12.92
H      10.40      13.11      14.36
H       6.09      13.17      14.53
H      10.45       4.64      14.59
H       6.13       4.61      14.42
H       9.90       6.99      22.43
H      11.22       5.33      21.18
H       9.89       7.00      17.44
H      11.22       5.34      18.68
H       6.12       9.04       0.80
H      10.44       8.89       0.79
H       6.14       8.95      10.18
H      10.46       8.81      10.17
H      11.80      10.27      23.89
H      11.82       7.45      26.95
H       4.81      10.28      23.90
H       4.78       7.40      26.91
H       6.11      13.14      25.33
H      10.43      13.10      25.50
H       6.15       4.59      25.45
H      10.47       4.61      25.29
C       8.23      11.49      14.41
C       8.33       8.97      17.03
C       8.27       6.28      14.49
C       8.30       8.83      11.83
C       8.26      11.47      25.46
C       8.34       8.95      22.86
C       8.30       6.26      25.39
C       8.33       8.80      28.06
C       4.19       9.67      15.33
C       2.80       9.69      15.35
C       2.04       8.87      14.48
C       2.79       8.05      13.62
C       4.18       8.06      13.63
C       0.64       8.88      14.49
C      15.92       8.87      14.48
C      14.52       8.87      14.48
C      13.76       9.68      15.35
C      12.37       9.67      15.32
C      12.38       8.08      13.60
C      13.77       8.06      13.60
C       8.24      12.99      14.44
C       9.47      13.67      14.41
C       9.47      15.05      14.44
C       8.28      15.82      14.49
C       7.08      15.08      14.52
C       7.04      13.70      14.50
C       8.30      17.22      14.50
C       8.31       0.54      14.50
C       8.31       1.95      14.50
C       9.50       2.71      14.54
C       9.51       4.09      14.55
C       8.29       4.78      14.50
C       7.08       4.07      14.45
C       7.11       2.69      14.46
C       8.35       8.96      21.35
C       9.13       7.99      20.66
C       7.61       9.90      20.66
C       9.90       7.01      21.34
C      10.64       6.08      20.64
C       8.35       8.97      18.53
C       7.61       9.90      19.24
C       9.13       7.99      19.22
C       9.89       7.01      18.53
C      10.63       6.08      19.23
C       8.28       8.95       0.64
C       7.06       9.00       1.34
C       7.09       9.00       2.72
C       8.29       8.97       3.47
C       9.48       8.94       2.72
C       9.49       8.92       1.33
C       8.29       8.97       4.88
C       8.30       8.96       6.10
C       8.30       8.93       7.50
C       7.11       8.95       8.26
C       7.09       8.92       9.64
C       8.30       8.86      10.33
C       9.52       8.84       9.63
C       9.49       8.89       8.25
C      12.39       9.66      24.56
C      13.78       9.67      24.54
C      14.54       8.86      25.40
C      13.79       8.04      26.27
C      12.40       8.07      26.27
C      15.95       8.86      25.39
C       0.66       8.86      25.39
C       2.07       8.85      25.40
C       2.83       9.67      24.54
C       4.22       9.65      24.56
C       4.20       8.04      26.25
C       2.81       8.03      26.26
C       8.27      12.97      25.42
C       7.06      13.67      25.35
C       7.10      15.06      25.33
C       8.30      15.80      25.36
C       9.49      15.03      25.41
C       9.49      13.65      25.45
C       8.32      17.20      25.35
C       8.33       0.52      25.35
C       8.33       1.93      25.36
C       7.13       2.67      25.40
C       7.10       4.05      25.41
C       8.31       4.76      25.37
C       9.53       4.07      25.32
C       9.52       2.69      25.33
N       4.85       8.86      14.48
N      11.71       8.88      14.45
N      11.74       8.87      25.42
N       4.87       8.84      25.41
Cl       6.71      11.12      18.39
Cl       6.72      11.11      21.51
O       9.34      10.91      14.15
O       7.12      10.91      14.64
O       7.24       8.66      16.47
O       9.43       9.24      16.45
O       7.16       6.84      14.24
O       9.37       6.87      14.73
O       9.42       8.60      12.40
O       7.19       9.04      12.41
O       7.14      10.89      25.25
O       9.36      10.89      25.72
O       9.44       9.23      23.43
O       7.25       8.64      23.42
O       9.40       6.85      25.15
O       7.18       6.82      25.65
O       7.22       9.02      27.48
O       9.44       8.58      27.47
F       2.14       7.24      12.77
F       2.16      10.50      16.20
F      14.42       7.25      12.75
F      14.40      10.48      16.22
F       5.91      15.77      14.56
F      10.65      15.71      14.42
F       5.94       2.00      14.43
F      10.68       2.04      14.57
F      10.65       8.91       3.39
F       5.92       9.04       3.41
F      10.67       8.88       7.57
F       5.93       8.99       7.58
F      14.44       7.23      27.13
F      14.42      10.48      23.67
F       2.16       7.21      27.11
F       2.19      10.49      23.69
F      10.67      15.70      25.43
F       5.93      15.75      25.29
F      10.69       2.01      25.29
F       5.96       1.99      25.43
