106

Zn       5.68       7.70       9.59
Zn       8.46       7.79       9.60
H       4.90       7.53       5.33
H       9.30       7.37      13.82
H       5.01       7.33      13.85
H       9.17       7.12       5.38
H       4.87       6.97       2.89
H       9.33       6.83      16.27
H       5.03       6.80      16.30
H       9.16       6.60       2.93
H       5.15      12.04       8.46
H       9.01       3.43      10.71
H       9.94      13.97      11.47
H       4.33       1.50       7.55
H       9.94       1.24      11.41
H       4.30      14.24       7.65
H       3.65       9.13       8.19
H      10.49       6.31      10.97
H       3.55       5.95      10.82
H      10.58       9.44       8.30
H       8.90      10.12      12.28
H       5.30       4.95       6.38
H       2.74       3.36      12.01
H      11.25      10.88       5.83
H       2.89      11.83       6.90
H      11.30       4.91      13.59
C       7.27       5.15       9.60
C       6.88      10.32       9.57
C       8.00      12.45      10.30
C       6.24       3.02       8.76
C       8.13      13.86      10.27
C       6.12       1.61       8.78
C       7.15      14.62       9.55
C       7.09       0.85       9.51
C       6.07      13.96       8.89
C       8.16       1.51      10.20
C       9.19      14.55      10.94
C       5.07       0.92       8.09
C       9.12       0.72      10.91
C       5.12      14.75       8.16
C       3.01       8.45       8.76
C      11.13       6.96      10.39
C       2.95       6.66      10.26
C      11.18       8.72       8.85
C       1.55       6.65      10.30
C      12.58       8.68       8.73
C       1.61       8.54       8.72
C      12.53       6.85      10.40
C       0.87       7.63       9.52
C      13.26       7.72       9.54
C       0.78       5.75      11.14
C      13.35       9.55       7.88
C       0.92       9.50       7.90
C      13.22       5.88      11.20
C       7.05       7.58       6.98
C       7.13       7.65      12.22
C       5.83       7.32       4.80
C       8.37       7.24      14.37
C       5.95       7.22      14.39
C       8.24       7.09       4.82
C       5.81       7.01       3.44
C       8.39       6.94      15.73
C       5.96       6.92      15.75
C       8.23       6.80       3.46
C       7.01       6.74       2.77
C       7.18       6.78      16.43
C       7.04       7.35       5.50
C       7.15       7.38      13.69
C       7.19       6.48      17.86
C       6.99       6.42       1.34
C       5.98      12.57       8.95
C       8.21       2.91      10.17
C       6.93      11.82       9.63
C       7.26       3.66       9.49
C       8.97      11.59      11.05
C       5.29       3.82       7.91
C       1.41       4.70      12.00
C      12.73      10.56       6.96
C       1.75      10.33       6.95
C      12.38       4.94      12.04
N       8.17       6.20       0.70
N       6.01       6.31      18.51
N       8.38       6.27      18.48
N       5.80       6.23       0.72
N       3.64       7.55       9.52
N      10.50       7.87       9.63
O       6.14       5.71       9.45
O       7.99       9.75       9.36
O       5.75       9.76       9.69
O       8.37       5.73       9.86
O       5.93       7.83       7.54
O       8.25       7.96      11.67
O       6.01       7.55      11.62
O       8.17       7.50       7.58
O      10.18      11.55      10.87
O       8.32      10.86      11.99
O       4.07       3.86       8.05
O       5.95       4.41       6.88
O       1.03       4.46      13.14
O       2.42       4.05      11.38
O      13.25      11.63       6.69
O      11.55      10.16       6.42
O       1.91      10.05       5.78
O       2.38      11.35       7.59
O      12.16       3.78      11.74
O      11.83       5.57      13.10
