312

Zn       8.17      -0.13      25.75
Zn       4.92      12.96      12.82
Zn       4.65       6.20      12.82
Zn       1.41       0.14      25.75
Zn       1.41       9.71       0.11
Zn       4.65      -3.38      13.04
Zn       4.92       3.38      13.04
Zn       8.17       9.45       0.11
H      -7.55       3.55      23.32
H       1.24      -2.76      10.39
H       8.34       2.76      10.39
H      -2.03      -3.55      23.32
H      17.13       6.03       2.54
H       8.34      12.34      15.47
H       1.24       6.82      15.47
H      11.61      13.13       2.54
H      -7.59       5.24      21.45
H      -0.45      -2.79       8.52
H      10.03       2.80       8.52
H      -2.00      -5.23      21.45
H      17.17       4.34       4.41
H      10.02      12.37      17.34
H      -0.45       6.79      17.34
H      11.58      14.82       4.41
H       7.46       4.24      20.66
H       0.55      12.26       7.73
H       9.03       6.91       7.73
H       2.11      -4.23      20.66
H       2.12       5.34       5.20
H       9.03      -2.67      18.13
H       0.55       2.67      18.13
H       7.47      13.82       5.20
H       7.49       2.63      22.58
H       2.16      12.28       9.65
H       7.42       6.88       9.65
H       2.09      -2.63      22.58
H       2.09       6.95       3.28
H       7.42      -2.70      16.21
H       2.16       2.70      16.22
H       7.49      12.21       3.28
H       6.98       7.26      16.20
H      16.70      11.77       3.27
H      12.05       7.38       3.27
H       2.60      11.91      16.20
H       2.60       2.33       9.66
H      -7.12      -2.19      22.59
H      -2.47       2.20      22.60
H       6.98      -2.32       9.66
H       8.36       7.65      18.26
H      16.30      13.16       5.33
H      12.44       6.00       5.33
H       1.22      11.52      18.26
H       1.21       1.93       7.60
H      -6.73      -3.57      20.53
H      -2.86       3.58      20.53
H       8.36      -1.93       7.60
H       8.93       3.40      18.66
H       1.39      13.72       5.72
H       8.19       5.44       5.73
H       0.65      -3.40      18.66
H       0.65       6.18       7.20
H       8.19      -4.14      20.14
H       1.39       4.14      20.13
H       8.93      12.98       7.21
H       7.62       3.03      16.56
H       1.76      12.41       3.63
H       7.82       6.75       3.63
H       1.96      -3.03      16.56
H       1.96       6.55       9.30
H       7.82      -2.83      22.23
H       1.76       2.83      22.23
H       7.62      12.61       9.30
H       5.94      -0.93      23.82
H       5.72      10.73      10.89
H       3.85       8.43      10.89
H       3.64       0.94      23.82
H       3.64      10.51       2.04
H       3.85      -1.15      14.97
H       5.73       1.15      14.97
H       5.94       8.64       2.04
H       6.01       0.84      23.82
H       3.96      10.81      10.89
H       5.62       8.35      10.89
H       3.56      -0.83      23.82
H       3.57       8.75       2.04
H       5.62      -1.22      14.97
H       3.96       1.23      14.97
H       6.02      10.41       2.04
H      15.61      10.74       1.56
H       3.62      10.82      14.49
H       5.95       8.34      14.49
H      13.13       8.41       1.56
H      -6.03      -1.16      24.30
H       5.95      -1.24      11.37
H       3.63       1.24      11.37
H      -3.55       1.17      24.30
H      15.64      11.62       0.03
H       2.75      10.85      12.96
H       6.83       8.31      12.96
H      13.11       7.54       0.03
H      -6.06      -2.04      25.83
H       6.83      -1.26      12.90
H       2.75       1.27      12.90
H      -3.53       2.04      25.83
H      15.48       7.44       0.06
H       6.93      10.69      12.99
H       2.65       8.47      12.99
H      13.26      11.72       0.06
H      -5.90       2.14      25.80
H       2.65      -1.11      12.87
H       6.93       1.11      12.87
H      -3.68      -2.13      25.80
H      15.50       8.34       1.58
H       6.03      10.71      14.51
H       3.55       8.45      14.51
H      13.24      10.82       1.58
H      -5.92       1.24      24.28
H       3.55      -1.13      11.35
H       6.03       1.13      11.35
H      -3.66      -1.24      24.28
C      10.71       3.72      22.73
C       1.07      15.50       9.80
C       8.51       3.66       9.80
C      -1.13      -3.72      22.73
C      -1.13       5.86       3.13
C       8.51      -5.92      16.06
C       1.07       5.92      16.06
C      10.71      13.30       3.13
C      10.69       4.65      21.69
C       0.15      15.48       8.76
C       9.43       3.68       8.76
C      -1.12      -4.64      21.69
C      -1.11       4.94       4.17
C       9.43      -5.90      17.10
C       0.15       5.90      17.10
C      10.69      14.22       4.17
C       9.52       4.82      20.92
C      -0.03      14.32       7.99
C       9.61       4.84       7.99
C       0.05      -4.82      20.92
C       0.05       4.76       4.94
C       9.61      -4.74      17.87
C      -0.03       4.74      17.87
C       9.53      14.40       4.94
C       8.37       4.09      21.24
C       0.70      13.17       8.31
C       8.88       6.00       8.31
C       1.20      -4.08      21.24
C       1.21       5.49       4.62
C       8.88      -3.58      17.55
C       0.70       3.59      17.55
C       8.38      13.67       4.62
C       8.38       3.20      22.31
C       1.60      13.17       9.38
C       7.98       5.99       9.38
C       1.19      -3.19      22.31
C       1.20       6.39       3.55
C       7.98      -3.59      16.48
C       1.60       3.59      16.48
C       8.38      12.77       3.55
C       7.21       5.12      16.26
C      -0.33      12.00       3.33
C       9.91       7.15       3.33
C       2.37      -5.12      16.26
C       2.37       4.46       9.60
C       9.91      -2.42      22.53
C      -0.33       2.43      22.53
C       7.21      14.70       9.60
C       7.42       6.42      16.74
C      17.53      12.21       3.81
C      11.21       6.94       3.81
C       2.16      12.74      16.74
C       2.16       3.16       9.12
C      -7.95      -2.63      22.05
C      -1.63       2.64      22.05
C       7.42      -3.16       9.12
C       8.18       6.64      17.89
C      17.31      12.97       4.96
C      11.43       6.19       4.96
C       1.40      12.52      17.89
C       1.40       2.94       7.97
C      -7.73      -3.39      20.90
C      -1.85       3.39      20.90
C       8.18      -2.94       7.97
C       8.71       5.55      18.60
C      -0.76      13.50       5.67
C      10.34       5.66       5.67
C       0.87      -5.55      18.60
C       0.87       4.03       7.26
C      10.34      -3.92      20.19
C      -0.76       3.92      20.19
C       8.71      15.13       7.26
C       8.50       4.25      18.12
C       0.54      13.29       5.19
C       9.04       5.87       5.19
C       1.08      -4.25      18.12
C       1.08       5.33       7.74
C       9.04      -3.71      20.67
C       0.54       3.72      20.67
C       8.50      13.83       7.74
C       7.77       4.04      16.95
C       0.75      12.56       4.02
C       8.83       6.60       4.02
C       1.81      -4.03      16.95
C       1.81       5.55       8.91
C       8.83      -2.98      21.84
C       0.75       2.99      21.84
C       7.77      13.61       8.91
C       9.53       5.83      19.82
C      -1.04      14.32       6.89
C      10.62       4.84       6.89
C       0.05      -5.82      19.82
C       0.05       3.75       6.04
C      10.62      -4.74      18.97
C      -1.04       4.74      18.97
C       9.53      15.41       6.04
C       5.56      -0.03      24.32
C       4.82      10.35      11.39
C       4.75       8.81      11.39
C       4.01       0.04      24.32
C       4.02       9.61       1.54
C       4.76      -0.77      14.47
C       4.82       0.78      14.47
C       5.57       9.54       1.54
C      15.19      10.76       0.55
C       3.61      10.40      13.48
C       5.97       8.76      13.48
C      13.55       8.40       0.55
C      -5.61      -1.18      25.31
C       5.97      -0.82      12.38
C       3.61       0.82      12.38
C      -3.97       1.18      25.31
C      15.10       8.34       0.56
C       6.03      10.30      13.49
C       3.55       8.86      13.49
C      13.65      10.82       0.56
C      -5.52       1.24      25.30
C       3.55      -0.72      12.37
C       6.03       0.73      12.37
C      -4.07      -1.24      25.30
C       9.57       1.98      24.15
C       2.82      14.36      11.22
C       6.76       4.80      11.22
C       0.01      -1.97      24.15
C       0.01       7.61       1.71
C       6.76      -4.78      14.64
C       2.82       4.78      14.64
C       9.57      11.55       1.71
C       9.55       2.99      23.05
C       1.80      14.34      10.12
C       7.78       4.82      10.12
C       0.02      -2.99      23.05
C       0.03       6.59       2.81
C       7.78      -4.76      15.74
C       1.80       4.77      15.74
C       9.56      12.57       2.81
C       6.39       4.89      15.03
C      -0.11      11.17       2.10
C       9.68       7.98       2.10
C       3.19      -4.89      15.03
C       3.19       4.69      10.83
C       9.68      -1.59      23.76
C      -0.11       1.60      23.76
C       6.38      14.47      10.83
N       6.07      -0.05      25.72
N       4.84      10.86      12.79
N       4.74       8.30      12.79
N       3.50       0.06      25.72
N       3.51       9.63       0.14
N       4.74      -1.28      13.07
N       4.84       1.29      13.07
N       6.08       9.53       0.14
O      10.18       6.87      19.92
O      -2.08      14.98       6.99
O      11.66       4.18       6.99
O      -0.61      -6.86      19.91
O      -0.60       2.71       5.94
O      11.65      -5.40      18.87
O      -2.08       5.40      18.87
O      10.19      16.44       5.95
O       8.45       1.45      24.47
O       3.34      13.24      11.54
O       6.24       5.92      11.54
O       1.13      -1.45      24.47
O       1.13       8.13       1.39
O       6.24      -3.66      14.32
O       3.34       3.66      14.33
O       8.45      11.03       1.39
O      -8.47       1.70      24.67
O       3.09      -3.67      11.74
O       6.49       3.67      11.74
O      -1.12      -1.69      24.67
O      18.05       7.88       1.19
O       6.49      13.25      14.12
O       3.09       5.91      14.12
O      10.70      11.28       1.19
O       6.20       3.69      14.65
O       1.10      10.99       1.72
O       8.48       8.17       1.72
O       3.38      -3.69      14.65
O       3.38       5.89      11.21
O       8.48      -1.41      24.14
O       1.10       1.41      24.14
O       6.20      13.27      11.21
O       5.92       5.93      14.45
O      18.02      10.71       1.53
O      10.72       8.45       1.52
O       3.66      13.23      14.46
O       3.66       3.65      11.41
O      -8.44      -1.13      24.33
O      -1.14       1.13      24.34
O       5.92      -3.65      11.40
