41

Al       4.17       3.39       5.87
H       3.18       8.30      11.40
H       0.98      12.02      11.40
H       0.98       7.83      10.58
H       3.18       9.69       7.36
H       0.98      10.64       7.36
H       3.18      12.49      10.58
C       2.08       5.16       6.89
C       2.08      15.17       6.89
C       2.08       3.39       3.82
C       2.65       2.34       1.57
C       2.70       2.35       0.18
C       2.08      10.16      11.20
C       1.47       4.42       0.18
C       1.52       4.43       1.57
C       2.08       3.39       2.31
C       1.47       7.79       9.61
C       1.52       6.59       8.92
C       2.08       6.47       7.64
C       2.65       7.63       7.11
C       2.70       8.83       7.81
C       2.08       8.93       9.07
C       1.47      11.50       7.81
C       1.52      12.69       7.11
C       2.08      13.86       7.64
C       2.65      13.74       8.92
C       2.70      12.53       9.61
C       2.08      11.39       9.07
Br       0.80       5.95       2.46
Br       3.37      14.38       2.46
Br       0.80      18.61       9.79
Br       3.37       7.62       5.35
Br       0.80      12.71       5.35
Br       3.37      15.27       9.79
N       2.08      10.16       9.78
O       1.10       2.83       4.40
O       1.10       4.94       6.12
O       1.10      15.94       7.08
O       3.07       3.94       4.40
O       3.07      15.39       6.12
O       3.07       4.39       7.08
