136

Zn       6.00       9.82       8.43
Zn       6.05       6.85       8.26
H       7.42       6.38       1.56
H       4.52       4.73       9.61
H       6.30      10.04      12.42
H       6.97      10.22      14.84
H       6.31      10.40       4.25
H       3.12       7.88      10.83
H       3.96       6.34      12.56
H       3.13       3.99      12.68
H       1.44       3.21      11.01
H       0.59       4.75       9.28
H       9.15      12.09       7.71
H       7.87       6.02      14.83
H       8.77      13.06       6.25
H       8.83      10.01       6.31
H       8.72      11.02       4.87
H      11.05      11.96       5.39
H      11.08      10.21       5.16
H      11.13      10.89       6.81
H       5.67      12.90      12.49
H       4.39      11.85      14.33
H       2.50      10.30      13.82
H       1.91       9.82      11.44
H       7.15       6.21       4.06
H       3.21      10.84       9.60
H      10.33       4.86       6.85
H       0.83       5.84       6.98
H       9.11       6.83       5.89
H      10.58       7.80       6.01
H       0.77       6.24       4.39
H      10.28       6.92       3.67
H      10.28       5.25       4.28
H      10.62       9.53      11.77
H       9.00       9.74      11.05
H       7.43      14.53       7.25
H      11.22      11.84      10.85
H       9.54      12.00      10.31
H       8.76      11.76      12.73
H       9.85      13.15      12.52
H      10.46      11.65      13.24
H       7.87      11.96       2.97
H       7.52      14.22       2.04
H       5.92      14.56       0.15
H       5.07      13.12      16.12
H       5.05      10.34       0.15
H       7.68       2.20       6.81
H       6.00       4.47      13.68
H       6.39       2.20      12.75
H       7.99       1.88      10.86
H       9.16       3.86       9.89
H       8.73       6.12      10.78
H       7.61       4.74       6.86
H       4.45       2.21       9.67
H       4.95      14.56      10.77
H       1.46       9.04       7.63
C       6.47       8.18       5.77
C       6.67       7.95      12.28
C       7.16       6.79      12.93
C       8.54       8.60       8.83
C       7.51       6.90      14.28
C       5.20       4.13       9.01
C       5.17       2.74       9.05
C       6.08       2.04       8.25
C       6.98       2.74       7.44
C       6.94       4.13       7.47
C       6.84      14.00       8.00
C       7.04       7.16       3.54
C       6.65      12.62       7.95
C       6.19      14.71       9.01
C       5.30      12.62       9.86
C       6.10       7.94      10.89
C       5.45      14.01       9.97
C       3.47       8.33       8.12
C       1.26       7.40       8.94
C       1.99       8.28       8.21
C      10.76       7.44       8.78
C      10.00       8.51       9.14
C       7.19       7.25       2.17
C       6.71       8.30       4.29
C       1.80       6.43       9.91
C       2.75       6.85      10.86
C       3.22       5.99      11.85
C       2.76       4.67      11.91
C       1.82       4.23      10.97
C       1.34       5.10       9.99
C       8.63      12.08       6.74
C       9.16      10.96       5.87
C      10.69      11.01       5.80
C       6.99       8.48       1.51
C       4.52      11.94      10.92
C       4.83      12.23      12.26
C       4.11      11.64      13.29
C       3.06      10.77      13.01
C       2.73      10.49      11.67
C       3.46      11.07      10.63
C      10.71       5.88       6.96
C      10.21       6.78       5.84
C      10.66       6.27       4.47
C      10.06      10.04      10.97
C       6.69       9.65       2.25
C      10.18      11.55      11.08
C       9.79      12.05      12.47
C       6.49      10.98       1.63
C       7.17      12.10       2.15
C       6.97      13.38       1.62
C       6.08      13.56       0.56
C       5.39      12.47       0.04
C       5.60      11.19       0.56
C       7.34       5.45      12.30
C       6.70       4.33      12.84
C       6.57       9.53       3.65
C       6.92       3.06      12.32
C       7.81       2.88      11.26
C       8.46       3.99      10.72
C       8.23       5.27      11.22
C       7.02       9.28      14.30
C       6.66       9.18      12.97
C       7.41       8.11      14.98
N       7.00       8.60       0.11
N       7.61       8.03      16.37
N       6.07       4.80       8.23
N       6.14       0.63       8.18
N       6.20      16.12       9.14
N       5.88      11.94       8.83
O       6.28       9.26       6.42
O      10.20       6.31       8.25
O      10.60       9.62       9.69
O       6.48       7.00       6.26
O       8.04       9.78       8.75
O       7.91       7.51       8.67
O       5.89       9.09      10.37
O       5.86       6.83      10.34
O       3.99       9.50       8.09
O       4.09       7.23       8.04
O       7.21      11.85       7.00
