106

Al       1.74       5.20      17.76
Al       5.00      15.56       5.89
Al       5.08       5.20      17.74
Al       1.66      15.56       5.89
H       5.14       8.58      11.34
H       1.63      12.20      12.31
H       0.65       9.33       9.70
H       6.13      11.45      13.95
H       4.47      11.33      11.65
H       2.31       9.45      12.00
H       4.54      11.06       0.94
H       2.18       9.66      22.73
H       4.56       9.43      22.82
H       2.16      11.29       0.85
H       5.01       1.60      12.12
H       1.31      19.31      11.41
H       5.49       0.82      22.84
H       1.26      19.93       0.78
H       5.57      19.90       0.96
H       1.19       0.85      22.67
H       5.30      20.10       9.23
H       0.21       0.80       9.02
H       0.20       1.14      10.75
H       5.72       1.98       9.68
H       0.22      20.29      13.09
H       6.03       0.92      14.66
H       0.38       2.15      13.90
H       1.00       1.19      15.26
H       3.42       6.90      17.36
H       3.33      13.88       6.33
H       0.08       3.46      17.54
H       6.68      17.32       5.81
C       3.42       3.58      15.94
C       3.32      17.23       7.66
C       3.40       3.62      19.56
C       3.35      17.13       4.06
C       0.05       6.79      19.56
C       6.68      13.94       4.10
C       0.09       6.81      15.93
C       6.66      13.98       7.73
C       0.39       9.79      10.65
C       6.39      10.99      12.99
C       5.85       9.40      11.55
C       0.93      11.38      12.10
C       0.09       7.73      14.82
C       6.67      13.06       8.84
C       1.31       9.88      11.92
C       5.47      10.90      11.73
C       0.09       9.46      12.83
C       6.69      11.32      10.81
C       0.09       8.52      13.90
C       6.68      12.26       9.76
C       5.49       9.85      23.21
C       1.23      10.87       0.46
C       6.71       9.44      22.65
C       6.69      11.28       1.02
C       1.23       9.98      23.16
C       5.49      10.75       0.51
C       0.05       8.51      21.59
C       6.67      12.22       2.08
C       6.67      13.02       3.00
C       0.06       7.71      20.67
C       4.37      20.77      10.89
C       1.95       0.12      12.66
C       3.25      19.89      10.73
C       3.08       0.98      12.84
C       2.16      19.98      11.59
C       4.18       0.91      11.95
C       3.26      18.96       9.68
C       3.19       1.89      13.91
C       3.37       2.68      14.82
C       3.31      18.17       8.75
C       4.65      20.28       0.50
C       2.10       0.47      23.12
C       3.41      19.81       0.99
C       3.35       0.94      22.64
C       2.22      20.29       0.41
C       4.54       0.46      23.22
C       3.37      18.87       2.04
C       3.39       1.88      21.58
C       3.40       2.68      20.66
C       3.35      18.07       2.96
C       6.24       1.02       9.86
C       0.38       1.15      14.36
N       5.45      20.69      10.03
N       0.82       0.11      13.44
O       4.53       3.92      19.07
O       2.21      16.81       4.53
O       2.30       3.88      16.46
O       4.46      16.91       7.18
O       1.23       6.41      16.34
O       5.52      14.38       7.33
O       2.25       4.03      19.19
O       4.49      16.74       4.46
O       1.19       6.48      19.07
O       5.55      14.26       4.59
O       4.58       3.98      16.32
O       2.18      16.82       7.27
O       3.41       6.00      17.72
O       3.33      14.76       5.93
O       5.60       6.39      19.16
O       1.15      14.33       4.51
O       5.64       6.50      16.41
O       1.11      14.30       7.25
O       0.07       4.40      17.74
O       6.68      16.36       5.88
