86

Al       3.98      14.55       0.00
Al       0.00      14.55      16.80
H       2.00      16.72      10.61
H       1.99      12.38      10.61
H       1.99      16.72       6.19
H       2.00      12.38       6.19
H       2.00      18.82      21.78
H       1.99      21.00      18.01
H       1.99      22.65      23.99
H       2.00      24.82      20.22
H       2.00      37.20      18.01
H       1.99      39.37      21.78
H       1.99      33.37      20.22
H       2.00      35.55      23.99
C       1.99      30.87      24.18
C       1.99      14.55       2.05
C       1.99      27.32      24.18
C       1.99      14.55      14.75
C       1.99      16.32      17.82
C       1.99      12.78      17.82
C       1.99      14.55      13.26
C       2.02      15.74      12.52
C       2.00      15.77      11.13
C       1.99      14.55      10.42
C       1.98      13.33      11.13
C       1.97      13.36      12.52
C       1.99      14.55       9.01
C       1.99      14.55       7.79
C       1.99      14.55       6.38
C       1.98      15.77       5.67
C       1.97      15.74       4.28
C       1.99      14.55       3.54
C       2.02      13.36       4.28
C       2.00      13.33       5.67
C       1.99      17.62      18.57
C       2.02      17.66      19.97
C       2.00      18.85      20.69
C       1.99      20.07      19.99
C       1.98      20.07      18.58
C       1.97      18.85      17.91
C       1.99      21.30      20.69
C       1.99      22.35      21.30
C       1.99      23.58      22.01
C       1.98      23.58      23.42
C       1.97      24.80      24.09
C       1.99      26.03      23.43
C       2.02      25.98      22.03
C       2.00      24.80      21.31
C       1.99      11.48      18.57
C       2.02      39.34      17.91
C       2.00      38.13      18.58
C       1.99      38.13      19.99
C       1.98      39.35      20.69
C       1.97      40.53      19.97
C       1.99      36.90      20.69
C       1.99      35.85      21.30
C       1.99      34.62      22.01
C       1.98      33.40      21.31
C       1.97      32.21      22.03
C       1.99      32.17      23.43
C       2.02      33.40      24.09
C       2.00      34.62      23.42
O       1.05      27.51      25.01
O       1.05      30.06      23.92
O       1.05      15.18       1.47
O       2.93      28.14      23.92
O       2.93      13.92       1.47
O       2.93      30.69      25.01
O       1.05      13.59      18.08
O       1.05      13.92      15.33
O       1.05      16.14      16.99
O       2.93      12.96      16.99
O       2.93      15.51      18.08
O       2.93      15.18      15.33
F       2.02      16.92      13.19
F       1.97      12.18      13.19
F       1.97      16.92       3.61
F       2.01      12.18       3.61
F       2.02      16.50      20.66
F       1.97      18.86      16.56
F       1.97      10.24       0.24
F       2.01      27.15      21.34
F       2.02      10.24      16.56
F       1.97      12.60      20.66
F       1.97      31.04      21.34
F       2.02      18.86       0.24
