324

Zn       5.69       8.30      27.45
Zn       2.21       6.25      21.85
Zn       5.98       0.38      16.86
Zn      -5.68      11.89      12.31
Zn      -2.21       9.85       6.71
Zn       9.01       3.98       1.72
Zn      13.17      -1.45      17.97
Zn       9.71       0.59      23.57
Zn      -1.51       6.46      28.56
Zn       1.81       2.15       2.83
Zn       5.28       4.19       8.43
Zn       1.52      10.06      13.42
H       6.76       6.62      29.66
H       8.79      13.74       0.87
H      -5.10      10.42      29.64
H      -7.19      10.35      28.22
H       8.46       8.28      26.42
H      -5.16       7.20      24.63
H       6.29       4.99      23.49
H       5.09       6.09      25.41
H      10.14       2.51      18.97
H       8.83       1.14      17.37
H       5.31       1.68      19.51
H       6.47       3.17      21.17
H      -2.69       6.84      23.26
H      -0.20       7.22      23.23
H       0.34       4.34      20.30
H      -2.13       3.84      20.21
H      -3.61      10.24       4.07
H      -4.01      12.12       2.43
H      -1.46      14.60       4.86
H      -1.24      12.66       6.45
H       5.07       1.12       0.05
H       0.00      16.90       3.09
H       6.70       3.04       0.05
H       9.02       1.27       2.99
H       8.23      10.22      14.52
H       6.19      10.14      16.01
H       5.11      14.02      14.50
H       7.20      13.96      13.08
H       6.52      11.88      11.28
H       5.17      10.80       9.49
H       8.69       8.59       8.35
H      -5.08       9.69      10.26
H       4.85       6.11       3.84
H       6.16       4.74       2.23
H       9.67       5.28       4.37
H       8.52       6.77       6.03
H       2.69      10.43       8.12
H       0.20      10.81       8.09
H      -0.34       7.93       5.17
H       2.13       7.44       5.07
H       3.61       6.64      19.21
H       4.01       8.52      17.57
H       1.46      11.00      20.00
H       1.24       9.06      21.59
H       9.91      -2.49      15.19
H      -0.00      13.30      18.23
H       8.28      -0.56      15.19
H       5.96      -2.33      18.12
H      -0.74       0.22      15.75
H       1.30       0.30      14.27
H       2.39      -3.58      15.78
H       0.30      -3.51      17.20
H       0.97      -1.44      19.00
H       2.33      -0.36      20.79
H      -1.20       1.86      21.92
H      12.58       0.76      20.01
H       2.65       4.33      26.44
H       1.34       5.70      28.05
H      -2.18       5.16      25.91
H      -1.02       3.68      24.25
H       4.80       0.01      22.16
H       7.29      -0.37      22.19
H       7.84       2.51      25.11
H       5.36       3.00      25.21
H       3.89       3.80      11.07
H       3.49       1.92      12.71
H       6.03      -0.56      10.28
H       6.25       1.38       8.68
H      -2.41      12.93      15.09
H       7.50      -2.85      12.05
H      -0.79      11.00      15.09
H       1.53      12.78      12.15
H       0.74       3.83       0.61
H      -1.29      -3.30      29.40
H      12.59       0.02       0.64
H      14.68       0.09       2.06
H      -0.97       2.16       3.86
H      12.66       3.24       5.65
H       1.20       5.46       6.78
H       2.40       4.36       4.87
H      -2.64       7.93      11.30
H      -1.33       9.31      12.91
H       2.18       8.76      10.77
H       1.02       7.28       9.11
H      10.18       3.61       7.02
H       7.69       3.23       7.05
H       7.15       6.11       9.98
H       9.62       6.60      10.07
H      11.11       0.20      26.21
H      11.51      -1.68      27.85
H       8.96      -4.16      25.42
H       8.74      -2.21      23.82
H       2.42       9.33      30.22
H       7.49      -6.46      27.18
H       0.79       7.40      30.22
H      -1.53       9.17      27.29
C       7.49       7.43      29.69
C       8.59      14.60       0.24
C      -5.49      15.67       0.21
C      -5.77       9.56      29.67
C      -6.91       9.53      28.88
C       8.02       7.54      25.76
C       8.77       6.95      24.76
C       8.16       6.00      23.92
C       6.81       5.69      24.14
C       6.14       6.30      25.20
C       8.94       5.35      22.85
C      -4.06       5.03      21.79
C       9.09       3.88      21.13
C       8.40       2.97      20.19
C       9.07       2.37      19.12
C       8.34       1.60      18.23
C       6.38       1.91      19.43
C       7.03       2.72      20.35
C      -2.60       5.31      21.73
C      -2.05       6.28      22.58
C      -0.68       6.50      22.56
C      -0.37       4.88      20.93
C      -1.74       4.61      20.88
C      -3.17      11.23       4.20
C      -3.39      12.27       3.31
C      -2.76      13.50       3.53
C      -1.95      13.65       4.66
C      -1.81      12.57       5.53
C      -2.97      14.62       2.59
C      -4.24      15.62       1.00
C      -2.30      16.57       1.66
C       6.16       0.05       1.58
C       5.95       1.11       0.71
C       7.29       0.08       2.41
C       6.83       2.18       0.71
C       8.13       1.19       2.36
C       7.51      11.03      14.55
C       6.39      11.00      15.37
C       5.49      12.07      15.34
C       5.78      13.17      14.53
C       6.93      13.13      13.74
C       6.97      11.14      10.62
C       6.22      10.55       9.62
C       6.83       9.60       8.78
C       8.18       9.29       9.00
C       8.85       9.90      10.05
C       6.04       8.95       7.71
C       4.06       8.63       6.65
C       5.90       7.48       5.99
C       6.59       6.57       5.05
C       5.92       5.97       3.98
C       6.64       5.20       3.09
C       8.61       5.51       4.29
C       7.96       6.32       5.21
C       2.60       8.91       6.59
C       2.05       9.88       7.44
C       0.68      10.09       7.42
C       0.38       8.48       5.79
C       1.74       8.20       5.75
C       3.17       7.63      19.34
C       3.39       8.67      18.45
C       2.76       9.90      18.67
C       1.95      10.05      19.80
C       1.82       8.98      20.67
C       2.97      11.02      17.72
C       4.24      12.02      16.14
C       2.30      12.97      16.80
C       8.82      -3.56      16.72
C       9.04      -2.49      15.84
C       7.69      -3.52      17.55
C       8.15      -1.42      15.85
C       6.85      -2.42      17.50
C      -0.01      -0.59      15.73
C       1.11      -0.55      14.91
C       2.01      -1.63      14.94
C       1.71      -2.72      15.75
C       0.57      -2.69      16.54
C       0.53      -0.70      19.66
C       1.28      -0.11      20.66
C       0.67       0.84      21.49
C      -0.68       1.15      21.28
C      -1.35       0.54      20.22
C       1.45       1.49      22.57
C       3.43       1.81      23.63
C       1.60       2.96      24.29
C       0.91       3.87      25.23
C       1.58       4.47      26.30
C       0.85       5.24      27.19
C      -1.11       4.94      25.99
C      -0.46       4.13      25.07
C       4.89       1.53      23.68
C       5.44       0.57      22.84
C       6.81       0.35      22.86
C       7.12       1.97      24.49
C       5.76       2.24      24.53
C       4.33       2.81      10.93
C       4.11       1.78      11.83
C       4.73       0.54      11.61
C       5.54       0.39      10.48
C       5.68       1.47       9.61
C       4.52      -0.58      12.55
C       3.25      -1.58      14.14
C       5.20      -2.53      13.48
C      -1.32      14.00      13.56
C      -1.54      12.93      14.44
C      -0.19      13.97      12.73
C      -0.65      11.87      14.43
C       0.64      12.86      12.78
C       0.01       3.01       0.59
C      -1.10      -4.16      30.04
C      12.98      -5.23      30.07
C      13.27       0.88       0.61
C      14.41       0.91       1.40
C      -0.53       2.91       4.52
C      -1.27       3.50       5.52
C      -0.66       4.44       6.35
C       0.68       4.75       6.14
C       1.36       4.14       5.08
C      -1.45       5.09       7.43
C      11.55       5.41       8.49
C      -1.59       6.56       9.15
C      -0.90       7.47      10.09
C      -1.57       8.07      11.16
C      -0.85       8.85      12.05
C       1.12       8.54      10.85
C       0.47       7.73       9.93
C      10.10       5.13       8.55
C       9.54       4.16       7.70
C       8.17       3.95       7.72
C       7.87       5.56       9.35
C       9.23       5.84       9.40
C      10.66      -0.79      26.07
C      10.88      -1.83      26.97
C      10.26      -3.06      26.75
C       9.45      -3.21      25.62
C       9.31      -2.13      24.75
C      10.47      -4.18      27.69
C      11.73      -5.18      29.28
C       9.79      -6.13      28.61
C       1.33      10.40      28.69
C       1.55       9.33      29.57
C       0.20      10.36      27.86
C       0.66       8.26      29.57
C      -0.63       9.26      27.91
I       5.32      10.56      26.35
I       4.03       6.69      28.55
I       2.60       7.38      24.11
I       3.50       4.25      20.91
I       3.73      -0.25      17.90
I       6.38       1.76      14.76
I      -5.31      14.15      11.21
I      -4.02      10.29      13.41
I      -2.59      10.98       8.97
I      -3.50       7.85       5.77
I      11.25       3.35       2.77
I       8.61      -1.85      29.90
I      12.80      -3.71      19.07
I      11.52       0.15      16.87
I      10.09      -0.54      21.31
I      10.99       2.60      24.51
I      -3.76       7.09      27.51
I      -1.12      12.29       0.38
I       2.18      -0.11       3.93
I       3.47       3.75       1.73
I       4.90       3.06       6.17
I       4.00       6.20       9.37
I       3.77      10.69      12.38
I       1.12       8.68      15.52
N       7.23       8.47      28.87
N       6.74       7.21      25.99
N      10.22       5.72      22.71
N      10.40       4.12      20.95
N       8.33       4.43      22.10
N       0.15       5.81      21.75
N       7.02       1.37      18.38
N      -2.40      11.38       5.30
N      -4.08      14.58       1.83
N      -3.35      16.61       0.84
N      -2.07      15.61       2.57
N       7.89       2.23       1.54
N       7.76      12.07      13.73
N       8.25      10.81      10.85
N       4.76       9.32       7.57
N       4.59       7.72       5.81
N       6.65       8.02       6.96
N      -0.15       9.41       6.61
N       7.96       4.97       3.24
N       2.40       7.78      20.44
N       4.08      10.98      16.97
N       3.35      13.01      15.98
N       2.07      12.01      17.71
N       7.09      -1.38      16.67
N      -0.26      -1.63      16.55
N      -0.76      -0.37      19.43
N       2.74       1.12      22.71
N       2.91       2.72      24.47
N       0.85       2.42      23.32
N       7.64       1.03      23.67
N      -0.47       5.47      27.04
N       5.10       2.66       9.84
N       3.42      -0.54      13.31
N       4.14      -2.57      14.30
N       5.43      -1.57      12.57
N       0.41      11.82      13.60
N       0.27       1.97       1.41
N       0.76       3.23       4.29
N      -2.73       4.72       7.57
N      -2.90       6.32       9.33
N      -0.84       6.02       8.18
N       7.34       4.63       8.53
N       0.47       9.08      11.90
N       9.90      -0.94      24.98
N      11.57      -4.14      28.45
N      10.85      -6.17      29.44
N       9.56      -5.17      27.71
N      -0.40       8.22      28.74
