134

Zn       8.67       7.94      14.04
Zn       5.86       7.90      14.04
H       5.22       0.64      13.14
H       6.98       4.66       3.43
H       8.84      10.79      27.11
H       6.75       4.67       0.96
H       5.40      15.15      15.47
H       9.16       0.69      12.62
H       4.48       9.30       9.17
H       4.38       8.92      18.90
H       7.81       2.17      17.92
H       6.80      13.68      10.15
H       0.17       9.01      17.08
H       9.33      15.20      14.95
H      14.29       6.77      11.03
H      14.32       5.74      16.42
H       0.18      10.14      11.70
H       3.45       9.77       6.91
H       3.24       9.09      21.14
H      10.65       6.07      22.24
H      10.98       7.10       5.81
H       7.99      12.30       1.51
H       5.27       3.93      26.56
H      13.70      10.18      14.50
H       0.82       5.69      13.59
H       7.87      11.30       3.44
H       5.76       4.81      24.63
H       9.30       7.18      18.22
H       9.30       7.30       9.85
H       9.03      10.66      24.65
C       7.26      10.52      14.07
C       8.01       8.79      24.51
C       7.29       8.01       9.92
C       7.30       7.91      18.15
C       7.84       8.89      27.35
C       7.08       6.79       0.73
C       6.89       6.58      27.36
C       7.70       9.21       0.71
C       7.38       7.73      26.65
C       7.41       8.00       1.42
C       8.45       9.92      26.60
C       7.17       5.32      14.01
C       6.95       5.60       1.47
C       8.55       9.86      25.21
C       7.07       5.59       2.86
C       7.29       7.96      11.43
C       7.32       7.92      16.64
C       7.82      10.40       1.47
C       6.28       5.56      26.60
C       7.52       0.33      15.32
C       7.04      15.51      12.77
C       6.19      15.52      14.82
C       7.43       7.98       2.85
C       8.36       0.32      13.27
C       7.25      11.97      14.10
C       7.24       3.87      13.99
C       8.39      15.55      14.53
C       6.17       0.29      13.56
C       7.22      14.60      14.06
C       7.33       1.24      14.03
C       7.24      13.18      14.09
C       7.30       2.66      14.00
C      14.13       9.19      14.30
C       7.41       7.73      25.22
C       0.39       6.67      13.79
C       0.32       8.37      15.27
C      14.20       7.50      12.83
C       0.32       8.81      13.09
C      14.20       7.06      15.00
C       7.61       9.22       5.03
C       6.79       6.64      23.04
C       1.25       7.97      14.05
C      13.27       7.90      14.04
C       2.67       7.99      14.06
C       7.62       9.19       3.56
C      11.86       7.87      14.03
C       7.31       6.74       5.04
C       8.07       8.79      23.04
C       8.55       7.61       7.86
C       8.50       7.34      20.21
C       8.44       7.61       9.26
C       8.43       7.46      18.82
C       6.18       8.46       9.16
C       6.17       8.30      18.92
C       6.24       8.41       7.74
C       6.82       6.65      24.51
C       6.23       8.24      20.34
C       7.43       7.99       7.11
C       7.40       7.75      20.97
C       7.70       0.70      16.74
C       6.85      15.14      11.35
C       5.08       8.77       6.89
C       5.10       8.70      21.19
C       9.78       6.80      20.75
C       9.88       7.21       7.33
C       7.77      10.38       2.87
C       6.24       5.61      25.20
C       7.27       6.77       3.56
N       7.48       7.99       5.67
N       7.44       7.70      22.40
N       3.83       7.99      14.06
N      10.70       7.86      14.02
O       8.41       9.97      14.04
O       6.23       5.76      22.38
O       8.62       9.66      22.38
O       7.20       5.72       5.70
O       5.11       8.92       9.82
O       5.11       8.77      18.25
O       7.85      -0.12      17.63
O       7.69       2.04      16.96
O       6.65      15.97      10.47
O       6.93      13.81      11.12
O       0.88       8.77      16.46
O       6.01       5.83      14.00
O      13.62       7.10      11.65
O      13.63       6.23      15.93
O       0.88       9.65      12.16
O       4.82       8.39       5.76
O       4.20       9.64       7.53
O       5.13       9.05      22.36
O       3.89       8.73      20.51
O      10.80       6.67      20.08
O       9.75       6.40      22.06
O      10.78       6.76       8.02
O       6.13       9.94      14.08
O      10.06       7.42       5.99
O       7.99      11.60       0.84
O       5.69       4.50      27.24
O       8.29       5.93      14.05
O       8.44       7.98      11.99
O       6.21       7.81      16.04
O       6.17       7.88      12.02
O       8.47       8.00      16.10
O       7.70      10.27       5.69
