408

Co       7.96      14.66      18.24
Co       6.78      11.94      19.14
Co      -1.27       9.55       5.54
Co      -0.09      12.28       6.44
Co       1.02       1.48       7.15
Co       2.20       4.20       6.26
Co      10.25       6.59      19.85
Co       9.07       3.87      18.96
H      -0.26       5.08      18.27
H       3.96      13.45      20.17
H       1.01       0.04      19.80
H       1.66       2.43      20.08
H      12.25       3.41      17.10
H      11.74       1.00      16.93
H      -0.01       6.77      19.76
H       1.30       7.03      18.62
H       2.91       7.30      20.54
H       1.63       6.93      21.68
H       0.32       8.92      20.80
H       1.65       9.30      19.73
H       3.15       9.63      21.75
H       1.78       9.24      22.80
H       0.53      11.25      21.89
H       2.04      11.68      22.68
H       3.14      11.59      20.33
H       1.50      11.54      19.66
H       1.26      16.08      20.13
H       6.45       2.30      19.60
H      10.48       1.38      19.40
H       5.47      15.13      19.92
H      -3.32      13.75      22.77
H      -3.67      13.90      25.23
H       5.72      14.75      24.58
H       6.06      14.53      22.11
H      -4.14      15.68       2.41
H      -2.56      14.50       3.95
H       9.15      10.74       2.99
H       7.57      11.92       1.44
H       8.31      10.28      23.10
H       8.08       9.43       0.05
H       4.00      10.80       0.13
H       4.23      11.61      23.18
H       5.43      11.71       2.87
H       3.39      12.03       4.29
H       2.04       8.08       3.25
H       4.08       7.76       1.83
H      11.53       2.99       5.57
H       2.73      10.76       7.47
H      10.26       8.03       7.10
H       9.61       5.64       7.38
H      -0.98       4.66       4.40
H      -0.47       7.07       4.23
H      11.29       1.30       7.06
H       9.97       1.04       5.92
H       8.36       0.77       7.84
H       9.65       1.14       8.98
H       6.38      15.29       8.10
H       5.04      14.91       7.03
H       3.54      14.59       9.05
H       4.91      14.97      10.10
H       6.16      12.96       9.19
H       4.65      12.53       9.98
H       3.55      12.62       7.63
H       5.19      12.67       6.96
H       5.43       8.14       7.43
H       4.82       5.77       6.90
H       0.80       6.69       6.70
H       1.22       9.08       7.22
H      10.01      10.46      10.07
H      10.36      10.31      12.53
H       0.97       9.46      11.88
H       0.63       9.69       9.42
H      10.84       8.53      15.11
H       9.25       9.71      16.65
H      -2.46      13.47      15.69
H      -0.88      12.29      14.14
H      -1.62      13.93      10.40
H      -1.39      14.78      12.75
H       2.70      13.41      12.83
H       2.46      12.60      10.48
H       1.26      12.50      15.57
H       3.30      12.18      16.98
H       4.65      16.13      15.95
H       7.19       0.31      14.53
H       9.24      11.06       7.13
H       5.03       2.69       5.23
H       7.97      16.10       5.60
H       7.32      13.71       5.31
H      -3.27      12.73       8.30
H      -2.76      15.14       8.47
H       9.00       9.37       5.64
H       7.68       9.11       6.78
H       6.07       8.84       4.86
H       7.35       9.21       3.72
H       8.67       7.22       4.59
H       7.33       6.84       5.67
H       5.83       6.52       3.64
H       7.20       6.90       2.60
H       8.45       4.89       3.51
H       6.94       4.46       2.72
H       5.84       4.55       5.06
H       7.48       4.60       5.74
H       7.72       0.07       5.27
H       2.53      13.84       5.80
H      -1.49      14.76       6.00
H       3.51       1.01       5.48
H      12.30       2.39       2.63
H      12.65       2.24       0.17
H       3.26       1.39       0.81
H       2.92       1.62       3.28
H      13.13       0.46      22.99
H      11.54       1.64      21.44
H      -0.17       5.40      22.40
H       1.41       4.22      23.96
H       0.67       5.86       2.30
H       0.90       6.71      25.35
H       4.99       5.34      25.26
H       4.75       4.53       2.21
H       3.55       4.43      22.53
H       5.59       4.11      21.11
H       6.94       8.06      22.15
H       4.90       8.38      23.56
H      -2.55      13.15      19.83
H       6.25       5.38      17.93
H      -1.28       8.11      18.30
H      -0.63      10.50      18.01
H       9.96      11.48      21.00
H       9.45       9.07      21.17
H      -2.30      14.84      18.34
H      -0.99      15.10      19.48
H       0.62      15.37      17.56
H      -0.66      15.00      16.42
H       2.61       0.85      17.29
H       3.95       1.23      18.37
H       5.44       1.55      16.34
H       4.07       1.17      15.30
H       2.82       3.18      16.21
H       4.33       3.61      15.42
H       5.43       3.52      17.76
H       3.79       3.47      18.44
H       3.55       8.01      17.97
H       4.16      10.37      18.50
H       8.19       9.45      18.70
H       7.77       7.06      18.18
H      -1.03       5.68      15.33
H      -1.38       5.83      12.87
H       8.01       6.68      13.51
H       8.35       6.45      15.98
H      -1.85       7.61      10.29
H      -0.27       6.43       8.74
H      11.44       2.67       9.70
H       9.86       3.85      11.26
H      10.60       2.21      15.00
H      10.37       1.36      12.65
H       6.29       2.73      12.56
H       6.52       3.54      14.91
H       7.72       3.64       9.83
H       5.68       3.96       8.41
H       4.33       0.01       9.45
H       1.79      15.83      10.86
C       0.54       0.82      19.20
C       0.91       2.15      19.36
C       0.24       3.13      18.60
C      -0.74       2.69      17.69
C      12.52       1.35      17.59
C       1.34       5.14      19.57
C       1.07       6.63      19.62
C       1.83       7.39      20.70
C       1.41       8.86      20.71
C       2.05       9.68      21.83
C       1.62      11.16      21.80
C       2.10      11.86      20.52
C       1.95      13.37      20.57
C       3.32      15.39      20.05
C       6.88       0.22      19.97
C       7.22       1.53      19.68
C       9.46       1.02      19.57
C       4.64      15.83      19.85
C       8.44      14.07      20.83
C       8.18      14.12      22.29
C       9.25      13.95      23.17
C       9.06      14.04      24.55
C       7.78      14.34      25.04
C       6.70      14.53      24.17
C       6.90      14.40      22.80
C       8.42      13.85       1.85
C       9.37      14.60       2.55
C      -3.32      13.94       3.41
C      -3.39      12.55       3.57
C       9.20      11.82       2.86
C       8.32      12.47       2.01
C      -2.45      11.84       4.47
C       6.38      11.41      21.57
C       6.27      10.98      22.98
C       7.36      10.38      23.64
C       7.25       9.91      24.94
C       6.03      10.05       0.22
C       4.94      10.68      25.00
C       5.07      11.13      23.69
C       4.83       9.73       2.25
C       4.67      10.94       2.94
C       3.54      11.11       3.73
C       2.58      10.09       3.83
C       2.78       8.88       3.15
C       3.91       8.69       2.36
C       1.36      10.31       4.65
C      10.73       7.25       6.51
C      10.37       5.92       6.66
C      11.03       4.94       5.90
C      12.01       5.38       4.99
C      -1.25       6.72       4.89
C       9.94       2.93       6.87
C      10.20       1.44       6.92
C       9.44       0.68       8.00
C       5.28      15.35       8.01
C       4.64      14.53       9.13
C       5.07      13.05       9.10
C       4.60      12.35       7.82
C       4.74      10.84       7.87
C       3.37       8.82       7.35
C       4.40       7.85       7.27
C       4.05       6.54       6.98
C       1.81       7.05       6.87
C       2.05       8.38       7.15
C      -1.75      10.14       8.14
C      -1.49      10.09       9.59
C      -2.56      10.26      10.48
C      -2.37      10.17      11.85
C      -1.09       9.87      12.34
C      -0.01       9.68      11.47
C      -0.21       9.81      10.10
C      -1.73      10.36      14.55
C      -2.67       9.61      15.25
C      10.01      10.27      16.11
C      10.08      11.66      16.27
C      -2.51      12.39      15.56
C      -1.63      11.74      14.70
C       9.14      12.37      17.17
C       0.31      12.80       8.87
C       0.42      13.23      10.29
C      -0.67      13.83      10.94
C      -0.55      14.30      12.24
C       0.66      14.16      12.92
C       1.75      13.53      12.30
C       1.62      13.08      10.99
C       1.86      14.48      14.95
C       2.02      13.27      15.63
C       3.15      13.10      16.43
C       4.11      14.12      16.53
C       3.92      15.33      15.85
C       2.79      15.52      15.06
C       5.34      13.90      17.35
C       8.44      15.32       6.19
C       8.08      13.99       6.04
C       8.74      13.01       6.80
C       9.72      13.45       7.71
C      -3.54      14.79       7.80
C       7.65      11.00       5.83
C       7.91       9.51       5.78
C       7.15       8.75       4.70
C       7.57       7.28       4.69
C       6.93       6.46       3.57
C       7.36       4.98       3.60
C       6.89       4.28       4.87
C       7.03       2.77       4.82
C       5.66       0.75       5.35
C       2.11      15.92       5.43
C       1.76      14.61       5.72
C      -0.48      15.12       5.83
C       4.34       0.31       5.54
C       0.54       2.07       4.56
C       0.80       2.02       3.11
C      -0.27       2.19       2.22
C      -0.08       2.10       0.85
C       1.20       1.80       0.36
C       2.28       1.61       1.23
C       2.08       1.74       2.60
C       0.56       2.29      23.54
C      -0.38       1.54      22.85
C      12.30       2.20      21.99
C      12.37       3.59      21.83
C      -0.22       4.32      22.54
C       0.66       3.67      23.39
C      11.43       4.30      20.93
C       2.60       4.73       3.83
C       2.71       5.16       2.41
C       1.62       5.76       1.76
C       1.74       6.23       0.46
C       2.96       6.09      25.18
C       4.04       5.46       0.40
C       3.91       5.01       1.71
C       4.15       6.41      23.15
C       4.31       5.20      22.46
C       5.44       5.03      21.67
C       6.40       6.05      21.57
C       6.21       7.26      22.25
C       5.08       7.45      23.04
C       7.63       5.83      20.75
C      -1.75       8.89      18.89
C      -1.38      10.22      18.74
C      -2.05      11.20      19.50
C      -3.03      10.76      20.41
C      10.23       9.42      20.50
C      -0.95      13.21      18.53
C      -1.22      14.70      18.48
C      -0.46      15.46      17.40
C       3.70       0.79      17.39
C       4.34       1.61      16.27
C       3.91       3.09      16.29
C       4.39       3.79      17.57
C       4.24       5.30      17.52
C       5.61       7.32      18.05
C       4.59       8.29      18.13
C       4.93       9.60      18.42
C       7.17       9.09      18.53
C       6.93       7.76      18.24
C      10.73       6.00      17.26
C      10.47       6.05      15.81
C      11.54       5.88      14.92
C      11.35       5.97      13.55
C      10.07       6.27      13.05
C       8.99       6.46      13.93
C       9.19       6.33      15.30
C      10.71       5.78      10.84
C      11.66       6.53      10.15
C      -1.03       5.87       9.29
C      -1.10       4.48       9.13
C      11.49       3.75       9.84
C      10.61       4.40      10.69
C      -0.16       3.77       8.23
C       8.67       3.34      16.53
C       8.56       2.91      15.11
C       9.66       2.31      14.46
C       9.54       1.84      13.16
C       8.32       1.98      12.48
C       7.23       2.61      13.10
C       7.36       3.06      14.41
C       7.12       1.66      10.45
C       6.96       2.87       9.76
C       5.83       3.04       8.97
C       4.87       2.02       8.87
C       5.07       0.81       9.55
C       6.20       0.62      10.34
C       3.65       2.24       8.05
N      13.14       0.41      18.34
N       0.44       4.48      18.75
N       3.13      14.04      20.26
N       8.49       1.95      19.48
N      -1.87       7.66       5.65
N      10.84       3.59       6.05
N       3.57      10.17       7.57
N       2.79       6.12       6.78
N      -4.16      15.73       7.05
N       8.55      11.66       6.65
N       5.86       2.10       5.13
N       0.50      14.19       5.92
N      10.85       8.48      19.75
N      -1.85      12.55      19.35
N       5.42       5.97      17.83
N       6.19      10.02      18.62
O       2.23       4.57      20.20
O       0.90      13.94      20.85
O       7.40      14.07      20.02
O      -3.95      14.10      20.39
O       7.53      14.50       0.99
O      -2.48      10.55       4.44
O      -1.67      12.52       5.20
O       5.37      11.88      20.94
O       7.51      11.29      20.96
O       5.98       9.53       1.49
O       0.40       9.46       4.53
O       1.34      11.33       5.42
O       9.04       3.50       7.50
O       5.79      10.27       8.15
O      -0.71      10.14       7.33
O      10.64      10.11       7.69
O      -0.84       9.72      13.69
O       9.17      13.66      17.14
O       8.36      11.69      17.90
O       1.32      12.33       8.24
O      -0.82      12.92       8.26
O       0.71      14.68      14.19
O       6.29      14.75      17.22
O       5.35      12.88      18.12
O       6.75      11.57       5.20
O       8.08       2.20       4.55
O       1.58       2.07       5.37
O      12.93       2.04       5.01
O       1.45       1.64      24.41
O      11.46       5.59      20.95
O      10.65       3.62      20.20
O       3.61       4.26       4.45
O       1.47       4.85       4.44
O       3.00       6.61      23.91
O       8.58       6.68      20.87
O       7.65       4.81      19.98
O      -0.06      12.64      17.90
O       3.19       5.87      17.25
O       9.69       6.00      18.07
O      -1.66       6.03      17.71
O       9.82       6.43      11.71
O      -0.19       2.48       8.26
O       0.62       4.45       7.50
O       7.66       3.81      17.15
O       9.80       3.22      17.14
O       8.27       1.46      11.21
O       2.69       1.39       8.17
O       3.63       3.26       7.28
