196

Zn       5.98      10.97       3.63
Zn       4.99       1.25       0.56
Zn       2.76       3.49       9.72
Zn      -5.39      -1.90      12.79
B       1.43       1.12       4.84
B      -8.15       2.95      12.70
B       4.50       8.69       8.50
B      10.58       1.05       0.64
H       2.58      -1.40       3.99
H      -8.07       4.72      10.41
H       1.74       8.54       9.35
H      12.11       1.95       2.93
H       8.62       7.02       1.39
H      -0.05      -2.77       9.60
H      -1.96       3.99      11.96
H       1.75       5.57       3.74
H       1.63      -0.79       7.04
H      -5.48       3.11      11.54
H       2.72       7.98       6.30
H       9.48       3.50       1.80
H       0.84       0.44      11.35
H      -2.12       0.34      12.85
H       4.17       7.85       1.99
H       5.46       5.18       0.49
H       4.52      -1.35      12.68
H      -1.18      -0.67       8.78
H       0.88      10.28       0.66
H       4.13       5.55       4.56
H       2.69      -1.17      11.00
H      -2.21       0.87      10.44
H       1.89       8.75       2.34
H       5.97       5.35       2.91
H      -6.57      10.41       3.50
H      -7.10       7.29      11.01
H       0.86       5.92       9.85
H      -1.67       4.00       2.33
H       6.03       1.08       3.64
H       5.19       1.57       8.74
H       9.57      -1.06       9.71
H      10.39      -1.58       4.60
H      -2.55      -0.12       4.89
H      -2.32      12.50       2.12
H       5.25       4.59       8.46
H       7.97      -3.16      11.22
H      -1.54       1.29       4.46
H      -3.59      11.24       1.99
H       6.03       6.14       8.89
H       7.45      -4.86      11.36
H      -1.43       0.59       6.08
H      -1.92      10.86       1.53
H       5.36       5.92       7.27
H       6.34      -3.56      11.82
H       0.86       1.46       2.28
H       9.42      11.18       0.02
H      -3.28      -5.46      11.06
H       1.35       6.63      13.33
H       1.95       2.37       1.19
H       3.62       3.69      12.90
H      -2.98      -4.08      12.15
H       5.76      11.83       0.44
H       1.84       0.61       1.06
H       4.32       5.10      12.08
H      -4.49      -4.99      12.28
H       6.68      13.10       1.26
H       2.36       0.40       9.44
H      -4.15       0.68      11.54
H       3.44       9.18       3.90
H       6.70       3.55       1.81
H       4.19       1.01       5.73
H       7.50       1.34      10.28
H      10.37      -2.72       7.62
H       9.12       0.37       3.06
H       2.19       4.55       7.03
H      11.76       5.87       0.48
H      -1.16      -2.85       6.32
H      -4.44       6.24      12.86
H       1.02       3.96       5.82
H      -4.29       7.45       1.18
H      -8.38       9.64       7.52
H      -2.83       6.57      12.16
H       2.75       3.79       5.51
H       6.48       0.06      12.95
H      -2.10      -2.71       7.83
H       1.22      12.67       0.39
H       0.67       1.99       4.46
H      -4.49       9.75       0.45
H       5.62       8.42       8.88
H       6.54      -6.35      12.89
C       1.59       1.20      13.23
C      -1.06      -1.52      12.61
C       4.50       8.86       0.12
C       3.32       5.26       0.74
C       6.81       8.00       0.83
C      -0.48      -2.39      11.66
C      -0.26       2.84      12.52
C       2.28       5.37       1.69
C       1.50      -1.40       4.09
C      -7.70       5.15      11.34
C       2.24       7.58       9.25
C      12.31       2.48       2.01
C      -0.50      -0.59       4.54
C      -2.96      12.11       0.13
C       3.89       6.18       8.80
C       7.93      -3.90      13.22
C       7.85       7.08       0.62
C      -0.53      -2.08      10.29
C      -1.55       3.34      12.73
C       2.58       5.47       3.05
C       1.81       0.25       7.29
C      -5.78       2.14      11.92
C       3.56       8.63       6.05
C       8.76       2.78       1.42
C       1.65       0.39      12.08
C      -1.70      -0.36      12.13
C       3.75       8.55       1.27
C       4.64       5.23       1.21
C       2.94       1.31       2.75
C       5.16       3.22      11.50
C      11.21      -3.69      10.59
C      11.87      -0.84       1.84
C       3.72      -0.63      12.83
C      -1.16      -0.92       9.84
C       1.90       9.90       0.52
C       3.90       5.45       3.50
C       6.89       8.85       2.07
C       0.18      -3.69      12.03
C       0.46       3.30      11.28
C       0.82       5.35       1.32
C       2.70      -0.51      11.88
C      -1.75      -0.06      10.77
C       2.47       9.05       1.47
C       4.94       5.32       2.57
C      -6.68      11.44       3.84
C      -7.23       6.40      11.63
C       1.81       6.30       9.50
C      -2.39       3.47       1.71
C      -1.57       0.34       5.01
C      -2.68      11.66       1.52
C       5.20       5.67       8.33
C       7.40      -3.86      11.83
C       1.83       1.44       1.77
C       4.56       4.12      12.52
C      -3.75      -4.61      11.57
C       5.70      12.86       0.82
C       2.17       0.84       8.47
C      -5.13       0.94      11.92
C       3.91       9.22       4.87
C       7.39       2.80       1.42
C       4.95       1.12       3.62
C       5.45       2.02       9.69
C      10.11      -2.00       9.72
C      10.68      -1.14       3.65
C       4.05       1.10       4.66
C       6.59       1.90      10.45
C      10.51      -2.81       8.69
C      10.04      -0.19       2.90
C       1.97       2.44       6.98
C      -7.05       0.63      12.92
C       5.42       9.78       6.36
C       8.01       0.95       0.43
C       1.98       3.76       6.30
C      11.55       6.92       0.25
C      -1.77      -3.40       7.04
C      -3.41       6.54      13.10
N       0.82      -0.27       4.53
N      -7.64       4.40      12.50
N       3.55       7.50       8.82
N      11.62       2.18       0.84
N       4.25       1.24       2.44
N       4.57       2.85      10.35
N      10.55      -2.57      10.91
N      11.82      -1.53       2.99
N      -0.69      -1.85       4.12
N      -6.89       6.43      12.97
N       2.85       5.44       9.22
N      13.07       3.79       0.37
N       2.79       1.22       4.10
N       6.40       2.66      11.59
N      11.20      -3.87       9.25
N      10.80      -0.01       1.75
N       1.68       1.26       6.35
N      -6.99       1.94      12.56
N       4.51       8.98       6.99
N       9.15       1.62       0.79
N       2.28       2.21       8.27
N      -5.93       0.00      12.54
N       5.07       9.95       5.08
N       6.93       1.65       0.81
O       6.30      10.00       1.96
O      -0.26      -4.23      13.13
O       1.76       3.32      11.38
O       0.55       4.71       0.21
O       7.50       8.45       3.08
O       1.06      -4.19      11.30
O      -0.18       3.66      10.26
O      -0.03       5.90       2.05
