154

Zn       3.96       7.88       8.82
Zn      -2.04      27.83       9.35
Zn      20.00      29.23      11.55
Zn      18.78      28.12       8.82
Zn      20.00       9.67       0.82
Zn       3.96      23.43      17.36
Zn      18.78      12.57       0.28
Zn      -2.04      12.28       0.82
H      27.13      15.83      17.38
H       4.05      17.87      13.66
H      27.13      11.94      15.25
H       4.05      13.99      11.53
H      -1.49      18.05       4.14
H      18.22      18.47       3.37
H      -1.49      21.93       6.27
H      18.22      22.35       5.50
H      14.67       7.40       4.14
H      12.99      11.32       3.37
H      10.97       6.23       6.27
H       9.29      10.15       5.50
H       9.29      25.02      13.66
H      10.97      26.47      17.38
H      12.99      26.19      11.53
H      14.67      27.64      15.25
C       6.64       7.09       7.89
C      22.33      27.53      12.28
C      27.57       9.31      11.38
C      17.32      28.02      11.38
C       1.63       7.58       7.00
C      20.35      25.79       7.89
C       3.61      20.50      17.53
C       1.63      25.13      16.63
C      17.32      10.46       1.75
C      20.35      14.60       1.75
C      22.33       9.97       2.64
C       6.64      24.64      17.53
C       0.80       8.19       5.88
C      -0.80       9.36       3.76
C      23.63       7.51       5.34
C       0.33      10.04       4.30
C      22.85       8.08       4.30
C       1.11       9.47       5.34
C      23.16      26.91      13.39
C       0.80      25.75      15.52
C      22.85      27.14      14.76
C       1.11      25.52      14.15
C      23.63      26.57      15.80
C       0.33      26.09      13.11
C      27.57      19.19      16.81
C      27.33      17.96      17.46
C      27.32      16.73      16.81
C      27.57      16.68      15.43
C       3.86      17.87      14.73
C       3.85      19.08      15.42
C      27.57      15.44      14.75
C      27.57      14.37      14.16
C      27.57      13.13      13.48
C      27.32      11.94      14.18
C      27.33      10.73      13.50
C      27.57      10.62      12.10
C       3.85      11.86      11.45
C       3.86      13.08      12.10
C      -3.61      15.92       2.47
C      -2.45      16.47       3.05
C      -2.42      17.69       3.72
C      -3.61      18.43       3.84
C      19.16      17.92       3.29
C      19.18      16.70       2.63
C      20.35      19.66       4.53
C      20.35      20.73       5.11
C      20.35      21.97       5.79
C      -2.42      22.48       6.35
C      -2.45      23.69       7.01
C      20.35      24.48       7.17
C      19.18      23.92       6.59
C      19.16      22.71       5.92
C      16.06      10.07       2.47
C      15.88       8.79       3.05
C      14.74       8.40       3.72
C      13.67       9.31       3.85
C      13.79      10.60       3.29
C      14.96      10.94       2.63
C      12.49       8.94       4.53
C      11.47       8.62       5.11
C      10.29       8.24       5.79
C      10.17       6.96       6.35
C       9.00       6.61       7.01
C       7.90       7.49       7.17
C       8.08       8.77       6.59
C       9.22       9.15       5.92
C       7.90      25.04      16.81
C       8.08      24.84      15.42
C       9.22      25.20      14.73
C      10.29      25.80      15.43
C      10.17      26.02      16.81
C       9.00      25.64      17.46
C      11.47      26.17      14.75
C      12.49      26.49      14.16
C      13.67      26.86      13.48
C      13.79      26.64      12.10
C      14.96      27.02      11.45
C      16.06      27.62      12.10
C      15.88      27.82      13.50
C      14.74      27.46      14.18
Cl      23.13       5.96       5.89
Cl       0.83      11.59       3.75
Cl      21.53       7.14       3.75
Cl       2.43      10.41       5.89
Cl      21.53      28.11      15.26
Cl       2.43      24.55      13.65
Cl      23.13      26.94      17.40
Cl       0.83      25.72      11.51
O      20.35      28.98       9.64
O       5.72       7.97       7.97
O      -1.29      27.28      11.08
O      27.34       8.27      12.08
O       6.60       5.91       8.36
O       3.85       9.34      10.13
O      21.34      28.25      12.61
O      18.24      28.56      12.08
O      25.25       6.44       7.43
O      17.36      27.78      10.13
O       2.62       8.25       7.43
O      -2.50      26.19       8.36
O      19.23      26.41       7.97
O       3.61      23.68      19.27
O      27.34      20.47      18.78
O       2.62      24.41      16.30
O      17.36      11.65       1.27
O       3.85      21.54      16.83
O      18.24       9.59       1.66
O      25.25      25.38      17.83
O      19.23      14.21       1.27
O      -1.29      11.12       2.21
O      -2.50      13.99       1.66
O      21.34       9.30       2.21
O       5.72      24.10      16.83
O       6.60      24.88      18.78
F      27.08      17.92      18.79
F       4.10      20.18      14.67
F      27.08       9.63      14.24
F       4.10      11.89      10.12
F      -1.26      15.82       2.97
F      18.00      16.29       2.12
F      -1.26      24.11       7.52
F      18.00      24.58       6.67
F      16.86       7.86       2.97
F      15.00      12.19       2.12
F       8.96       5.36       7.52
F       7.10       9.70       6.67
F       7.10      24.27      14.67
F       8.96      25.89      18.79
F      15.00      26.77      10.12
F      16.86      28.39      14.24
