240

In      -0.17       3.48       5.87
In       3.15       6.96      17.60
In      -3.81       6.96      17.60
In      -0.50      10.44       5.87
In      -0.33       6.96       6.56
In      -0.33       6.96      16.91
In       0.00       0.00       5.17
In       6.63       6.96      18.30
H       4.47      -3.30      15.59
H       0.46      -3.64      14.08
H       2.80      -1.65      10.95
H       2.03      -1.03       8.66
H       1.25       2.98       9.98
H       4.75      -1.12      14.37
H       2.05       2.37      12.29
H       0.72      -1.46      12.88
H      10.15       2.66       7.88
H      10.29       6.68       9.39
H       8.42       4.25      12.52
H       7.77       4.99      14.81
H       3.72       5.58      13.49
H       7.99       2.28       9.10
H       4.37       4.80      11.18
H       8.13       6.32      10.59
H       3.11      11.25       7.88
H       2.97       7.23       9.39
H       4.84       9.67      12.53
H       5.50       8.94      14.81
H      -4.38       8.35      13.49
H       5.94      -2.27       9.10
H       8.89       9.12      11.18
H       5.13       7.60      10.59
H      -4.45       3.32      15.59
H      -0.44       3.66      14.08
H      -2.79       1.67      10.94
H      -2.02       1.04       8.66
H      -1.91      10.94       9.98
H       9.19       1.14      14.37
H      -2.04      -2.36      12.29
H      -0.70       1.47      12.88
H      11.60       8.54       6.00
H       2.51       3.32      19.62
H       6.52       3.66      21.12
H      10.79       8.61       0.79
H      11.56       7.99       3.07
H      12.35       3.98       1.75
H       2.23       1.14      20.83
H       4.93      -2.35      22.91
H       6.26       1.48      22.32
H      11.94       1.59       5.74
H       3.45       4.30       3.85
H       3.30       0.28       2.35
H      -1.44      -4.23      22.68
H      -0.78      -4.97      20.40
H       3.26      -5.56      21.72
H       5.61       4.68       2.64
H       9.23       2.16       0.56
H       5.47       0.64       1.15
H       9.81       9.62       3.85
H      10.63      -0.27       2.35
H       1.47       4.26      22.68
H       0.81       4.99      20.39
H      -3.24       5.58      21.72
H       7.65       9.23       2.63
H       4.03      11.75       0.56
H       7.79      13.27       1.15
H      -2.49      -3.30      19.62
H       7.43      -3.64      21.12
H       2.46       5.29       0.79
H       1.69       5.92       3.08
H       0.91       9.93       1.75
H      -2.21      -1.12      20.84
H      -4.90       2.38      22.91
H      -6.24      -1.45      22.32
H      -1.33      -5.03      17.48
H       5.63      -5.03      17.73
H       1.35       5.05      17.47
H       8.31       5.05      17.73
H       1.66       5.37       6.00
H       1.99      -1.58       5.74
C       1.62       9.05      15.67
C       3.66      -2.89      14.99
C       1.40      -3.08      14.13
C       1.61       1.02       9.18
C       2.46       0.33      11.74
C       2.47      -0.64      10.73
C       2.45      -3.60      14.91
C       2.04      -0.29       9.46
C       1.12       1.37       7.82
C       1.60       1.98      10.21
C       3.82      -1.68      14.32
C       2.03       1.64      11.48
C       2.75      -1.18      13.57
C       1.54      -1.87      13.47
C      -2.32       4.91       7.80
C       9.70       3.45       8.48
C       9.79       5.72       9.34
C       5.70       5.31      14.29
C       6.42       4.50      11.73
C       7.39       4.53      12.74
C      10.35       4.69       8.56
C       7.02       4.94      14.01
C       5.32       5.78      15.65
C       4.74       5.27      13.26
C       8.50       3.23       9.15
C       5.10       4.86      11.99
C       7.95       4.27       9.90
C       8.58       5.52      10.00
C       1.65       9.00       7.80
C       3.56      10.47       8.48
C       3.47       8.20       9.34
C       7.57       8.61      14.29
C       6.84       9.42      11.73
C       5.87       9.38      12.74
C       2.91       9.23       8.57
C       6.24       8.98      14.02
C       7.95       8.15      15.65
C       8.52       8.65      13.26
C       4.75      10.68       9.15
C       8.16       9.06      11.99
C       5.31       9.64       9.90
C       4.68       8.40      10.00
C      -2.27       4.88      15.67
C      -3.64       2.91      14.99
C      -1.38       3.10      14.13
C      -1.60      -1.01       9.18
C      -2.44      -0.32      11.74
C      -2.45       0.65      10.73
C      -2.44       3.62      14.90
C      -2.03       0.30       9.45
C      -1.12      -1.37       7.82
C      -1.59      -1.96      10.21
C      -3.80       1.70      14.32
C      -2.02      -1.63      11.49
C      -2.74       1.19      13.57
C      -1.52       1.89      13.47
C       4.69       4.88      19.53
C       3.32       2.91      20.22
C       5.58       3.10      21.07
C      11.99       5.94       2.55
C       4.52      -0.31      23.46
C      11.13       7.60       1.00
C       4.53       3.62      20.30
C      11.55       7.25       2.28
C      12.47       5.59       3.91
C      11.99       4.99       1.53
C       3.16       1.70      20.89
C      11.56       5.32       0.25
C       4.23       1.20      21.64
C       5.44       1.89      21.74
C       1.99       2.05       3.94
C       3.89       3.51       3.25
C       3.81       1.24       2.40
C       1.28      -5.29      20.92
C       7.17       2.47       0.01
C      -0.41      -4.52      22.47
C       3.24       2.27       3.17
C      -0.04      -4.92      21.19
C       1.66      -5.76      19.56
C       2.24      -5.25      21.94
C       5.09       3.73       2.58
C       1.88      -4.84      23.22
C       5.65       2.69       1.83
C       5.01       1.44       1.73
C      11.27      11.87       3.94
C       9.37      10.41       3.25
C       9.45      12.67       2.40
C      -1.26       5.32      20.91
C       6.09      11.45       0.01
C       0.44       4.54      22.47
C      10.01      11.65       3.17
C       0.07       4.95      21.19
C      -1.64       5.78      19.55
C      -2.21       5.28      21.94
C       8.17      10.19       2.58
C      -1.86       4.86      23.22
C       7.61      11.23       1.83
C       8.24      12.47       1.73
C      -4.67      -4.86      19.53
C      -3.30      -2.89      20.22
C      -5.56      -3.08      21.07
C       1.27       7.97       2.56
C      -4.50       0.34      23.46
C       2.12       6.31       1.00
C      -4.51      -3.60      20.30
C       1.70       6.66       2.28
C       0.78       8.33       3.92
C       1.26       8.92       1.53
C      -3.14      -1.68      20.89
C       1.69       8.59       0.25
C      -4.21      -1.18      21.64
C      -5.42      -1.87      21.74
O       0.88       5.21       6.57
O       0.49       2.48       7.71
O       1.36       0.56       6.86
O       0.54       8.37      15.49
O       2.57       8.74      16.47
O       2.93       0.08      13.01
O       1.48       5.83      16.90
O       4.19       6.36      15.76
O       6.15       5.58      16.61
O      -1.70       6.02       7.98
O      -1.97       3.98       7.00
O       6.70       4.04      10.46
O      -2.13       8.10      16.91
O      -4.84       7.57      15.77
O       7.12       8.35      16.61
O       1.03       7.90       7.97
O       1.30       9.94       7.00
O       6.56       9.88      10.46
O      -1.55       8.71       6.56
O      -1.16      11.44       7.71
O      -1.35      -0.55       6.86
O      -1.20       5.55      15.50
O      -3.23       5.19      16.47
O      -2.91      -0.06      13.01
O      -1.22       1.75       5.17
O      -0.82       4.48       4.03
O      -1.69       6.40       4.87
O       5.76       5.55      19.71
O       3.74       5.19      18.73
O       4.05      -0.06      22.19
O       4.83       8.10      18.30
O       2.12       7.57      19.44
O       0.16       8.35      18.60
O       1.37       0.94       3.76
O       1.64       2.98       4.74
O       6.89       2.93       1.28
O      -5.48       5.83      18.30
O      -2.77       6.36      19.44
O      -0.81       5.58      18.60
O      12.56      -0.94       3.76
O      11.62      10.93       4.73
O       6.37      10.99       1.28
O       0.55      12.16       5.17
O       0.15       9.43       4.03
O       1.02       7.51       4.87
O       8.18      -5.53      19.71
O      -3.72      -5.17      18.74
O      -4.03       0.08      22.19
