116

Zn       6.36      17.02       2.01
Zn       1.89      -7.28      13.94
Zn       0.21       8.21      14.69
Zn       8.13       0.96       1.60
H      12.99       1.09       2.08
H       5.77      -1.06       2.29
H       8.95       3.05       4.02
H      -0.12       6.99      11.77
H      -2.96      12.11      10.65
H       4.76      14.33       2.44
H       9.80       3.69       1.99
H       0.85       5.04      14.58
H      -3.18       4.83       5.22
H      -5.88       6.45       8.97
H       5.16       8.94      11.58
H      -5.67      10.82      13.78
H       3.69       9.41      10.69
H       5.08      10.51      10.77
H       3.30      11.27      12.39
H       4.76      10.79      13.24
H       3.75       8.49      13.58
H       2.24       9.08      12.86
H       3.36       2.68       4.80
H       5.00       3.33       4.97
H       3.66       4.41       4.55
H       5.03       3.90       2.50
H      -3.64       7.55       5.86
H       3.39       3.27       2.33
H       4.18       1.00       3.04
H       5.83       1.62       3.21
H      13.21       3.71       8.33
H      -2.66       4.29       7.96
H      12.24       6.98       6.22
H       3.24      -4.54      13.50
H       8.24      14.14       2.80
H       1.25      11.07      10.87
C      12.82       0.67       1.09
C      -5.01       4.57       7.80
C      -3.77       5.19       6.06
C      -5.30       6.07       8.13
C      11.72       3.11       5.11
C      -2.56       7.38      10.06
C      13.07       6.38       6.62
C      -3.50       4.87       7.57
C      13.32       4.86       6.27
C      -3.76       6.39       7.95
C      12.48       3.97       5.55
C      -1.02      -7.19      14.80
C      -3.04       7.04       8.99
C       3.73      -2.55      15.70
C       8.31      11.85       0.82
C       3.32      -4.79      14.55
C       7.81      14.16       1.80
C       9.63       6.94       0.06
C       8.71      10.70       0.66
C       9.40       8.25       0.26
C       9.10       9.43       0.47
C       1.98      14.49       3.51
C       3.64      -3.95      15.65
C      -0.54      12.13       8.83
C       1.38      13.90       4.41
C      -0.17      12.46       7.70
C       0.78      13.33       5.46
C       0.29      12.89       6.51
C      15.07       0.96       0.03
C       2.79       1.33       0.23
C      16.29       1.14       0.11
C       1.56       1.34       0.26
C      17.62       1.27       0.19
C       7.78      13.15       0.81
C       0.22       1.32       0.24
C       0.20      11.26      11.06
C       2.40      16.62       2.22
C       9.63       2.21       3.98
C      -1.00       7.55      12.07
C      -1.96      11.80      10.93
C       4.09      15.18       2.29
C      11.31       0.79       4.19
C      -2.94       8.58      12.24
C       9.60       3.46       0.95
C      -0.78      11.75      10.15
C       1.10       5.46      15.54
C       2.69       9.86      14.78
C       5.13       1.48       1.20
C      13.72       0.61       0.01
C       4.19       1.30       0.15
C      12.51       0.10       4.48
C      -4.22       9.14      11.99
C       3.13       9.39      13.44
C       3.94      10.41      12.62
C       4.50       9.78      11.34
C       2.75      15.32       2.68
C       4.89       1.75       2.64
C       4.32       3.15       2.90
C       4.07       3.41       4.39
C      10.93       2.12       4.51
C      -2.17       7.80      11.34
C      -4.04       6.69       6.41
N      11.66       0.07       0.76
N       4.52      16.31       1.68
N      10.33       0.18       3.47
N      -2.27       8.82      13.40
N       9.26       2.23       0.55
N       6.74      15.00       0.07
N       1.46       9.57      15.26
N       6.37       1.39       0.68
N      13.50      -0.49       4.69
N      -5.27       9.59      11.77
N       0.28      -7.14      15.13
N       3.09      -6.03      15.00
N       7.19      15.27       1.34
N      -0.34      11.03      12.26
N       3.48      17.19       1.64
N       9.30       1.07       3.34
N      -1.08       8.16      13.27
N      -1.67      11.38      12.17
