80

Zn       6.86       9.00       8.53
Zn       6.59       6.85      10.89
Zn       8.99       9.05      10.87
Zn       8.94       6.62       8.76
H       6.41       9.02       4.44
H       9.56       9.00      15.00
H       0.38      10.80       9.69
H      12.85       5.45       9.93
H      13.20       9.74       9.96
H       5.57       7.43      14.92
H       6.31       7.88       0.01
H       9.92       6.31       2.18
H       9.47       9.12      17.49
H       9.72       6.29       4.67
H       9.34       7.40       0.03
H       5.44       7.59      17.40
H       6.60       9.05       1.96
H       3.87      10.50       9.25
H       7.47       2.84      12.18
H       7.99      15.32       6.90
H       7.59       0.37      12.47
H       8.01      12.86       7.20
H       8.21      13.33      11.47
H       2.49       6.29       9.93
H       0.24       5.22       9.96
C       7.58       4.27       9.97
C       8.36       7.63       0.44
C       7.38       8.36      19.08
C       8.10      11.47       9.51
C       7.58       8.19      14.81
C       7.53       2.77      10.03
C       8.12      12.95       9.36
C       8.02      14.89       7.90
C       8.05      13.52       8.06
C       8.16      13.77      10.47
C       8.09      15.18      10.34
C       8.25       7.66       1.89
C       7.57       0.53       9.02
C       7.54       1.96       8.91
C       7.52       2.17      11.32
C       4.28       8.21       9.67
C       7.58       0.81      11.48
C       2.81       8.39       9.72
C      12.90       7.62       9.95
C      14.87       6.20       9.94
C      13.50       6.32       9.94
C      13.68       8.76       9.94
C       9.15       6.91       2.68
C      15.10       8.66       9.87
C       0.61       7.36       9.90
C       2.01       7.26       9.87
C       2.21       9.68       9.61
C      11.42       7.73       9.93
C       0.83       9.80       9.73
C       7.65       8.10      13.33
C       7.94       7.65       6.19
C       8.04       7.64       4.71
C       7.16       8.41       3.93
C       9.04       6.88       4.06
C       7.26       8.42       2.55
C       8.62       8.73      16.93
C       8.67       8.67      15.55
C       6.41       7.80      15.49
C       6.35       7.89      16.88
C       7.46       8.33      17.63
Cl       7.44       2.64       7.32
O       7.84       7.88       9.79
O       6.69       7.48      12.74
O       8.82       6.98       6.84
O       8.66       8.64      12.76
O       6.99       8.34       6.70
O       2.94      10.80       9.42
O       4.98       9.19       9.17
O      10.79       6.74       9.41
O       6.86       4.90      10.81
O       8.56      10.96      10.58
O       8.37       4.78       9.11
O       7.60      10.82       8.52
O       4.78       7.13      10.12
O      10.88       8.79      10.41
