344

Zn      -5.28       5.01      14.27
Zn      -7.20       6.33      16.13
Zn      -1.09      22.58       0.82
Zn      -5.54      10.03      22.08
Zn      -1.09      10.58      10.80
Zn       0.83      11.67      12.81
Zn      -5.28      -9.24      20.61
Zn      -0.83      15.37      18.75
H      -1.96      -6.57      14.85
H       1.55      -5.83      11.96
H       2.49       3.25      16.81
H       1.29       1.09      16.78
H       4.33      -0.59      14.24
H       5.52       1.60      14.24
H       0.08      -0.14      15.14
H      -3.41      -3.39      14.52
H       2.34      -4.55      15.53
H       3.64      -2.48      15.73
H      -2.71      -1.33      12.56
H      -3.75       0.92      12.14
H      -3.09       1.98      16.25
H      -2.08      -0.27      16.69
H      -3.99      18.17      12.72
H      -5.05      15.68      16.68
H      -1.14      -7.59      19.00
H      -0.99      -5.89      17.23
H      -2.67      16.34      16.21
H      -1.19      14.40      15.72
H      -3.30      13.70      12.03
H      -4.81      15.61      12.54
H      -4.25      15.27      18.70
H      -4.29      13.47      20.41
H      -8.31      14.57      21.49
H      -1.94      -9.60      19.73
H      -4.41      16.94      10.95
H      -7.92      19.85      11.57
H       3.88      19.52       1.28
H       5.08      18.59       3.23
H       2.03      20.13       5.86
H       0.85      21.10       3.90
H      -6.45      19.51       5.06
H      -2.96      18.63       8.25
H       4.03      17.22       8.85
H       2.72      17.95       6.89
H      -3.66      21.31       7.26
H      -2.62      22.67       5.44
H      -3.28      19.46       2.67
H      -4.29      18.07       4.49
H      -8.76      18.32      12.96
H      -7.69      13.67      13.45
H      -5.23      12.76      10.04
H      -5.38      15.10       9.30
H       2.66      14.38      13.06
H       1.19      13.97      15.02
H      -9.45      16.96      17.28
H      -7.94      17.34      15.34
H       4.25      11.67      12.92
H       4.28       9.35      13.78
H      -4.43       8.86      12.32
H      -4.43      11.21      11.51
H       8.33      16.22       0.68
H       4.83      13.31       0.06
H       3.88      13.64      10.35
H       5.08      14.57       8.40
H       2.04      13.03       5.77
H       0.85      12.06       7.73
H       6.29      13.65       6.57
H      -2.96      14.53       3.38
H       4.03      15.94       2.78
H       2.73      15.20       4.73
H      -3.67      11.85       4.37
H      -2.64      10.49       6.20
H      -3.27      13.71       8.96
H      -4.28      15.09       7.14
H      -2.38       3.38      21.92
H      -1.33       8.03      21.44
H      -5.23      20.40       1.59
H       7.36      18.06       2.33
H      -3.70       7.31      21.82
H      -5.18       7.73      19.87
H      -3.08       4.73      17.61
H      -1.57       4.35      19.55
H      -2.13      10.03      21.96
H      -2.09      12.35      21.11
H     -10.81      12.84      22.56
H      -4.43      21.95       0.11
H      -1.97       2.33      20.04
H       1.54       1.60      22.92
H       2.49      -7.48      18.07
H       1.28      -5.32      18.10
H       4.33      -3.64      20.65
H       5.52      -5.83      20.65
H       0.08      -4.09      19.74
H      -3.41      -0.84      20.36
H       2.33       0.32      19.35
H       3.64      -1.76      19.15
H      -2.71      -2.91      22.32
H      -3.73      -5.15      22.74
H      -3.10      -6.21      18.63
H      -2.09      -3.96      18.19
H       2.38       3.53      22.16
H       1.32       6.02      18.21
H      -1.14       3.36      15.88
H      -0.99       1.66      17.65
H       3.70       5.36      18.67
H      -7.56       7.29      19.17
H      -9.67       7.99      22.85
H       1.56       6.09      22.34
H       2.12       6.43      16.18
H       2.08       8.23      14.47
H      -1.94       7.13      13.39
H      -1.94       5.37      15.15
C       4.79       3.86      15.50
C       4.08       2.56      15.52
C       2.89       2.41      16.24
C       2.21       1.20      16.22
C       2.71       0.10      15.50
C       3.93       0.25      14.82
C       4.60       1.47      14.81
C       1.94      -1.16      15.44
C       0.57      -1.11      15.25
C      -0.22      -2.28      15.13
C      -1.62      -2.24      14.85
C      -2.34      -3.41      14.71
C      -1.69      -4.66      14.81
C      -0.32      -4.76      15.01
C       0.44      -3.56      15.20
C       1.84      -3.59      15.43
C       2.57      -2.43      15.54
C      -2.30      -0.93      14.64
C      -2.80      -0.60      13.37
C      -3.37       0.65      13.13
C      -3.44       1.59      14.16
C      -2.99       1.25      15.45
C      -2.43      -0.00      15.69
C       0.36      -6.08      14.90
C       1.08      -6.38      13.75
C      -4.60      18.33      13.61
C      -4.63      17.36      14.60
C      -5.39      17.61      15.79
C      -5.53      16.64      16.81
C      -6.26      16.89      17.97
C      -0.57      -7.80      18.10
C      -4.02       2.94      13.94
C      -0.48      -6.85      17.11
C       0.29      -7.06      15.93
C      -3.83      16.13      14.40
C      -2.83      15.75      15.31
C      -2.00      14.66      15.03
C      -2.15      13.93      13.85
C      -3.17      14.27      12.95
C      -4.00      15.36      13.23
C      -1.17      12.89      13.48
C      -5.16      15.09      19.28
C      -6.29      15.89      19.05
C      -5.17      14.10      20.25
C      -6.31      13.89      21.04
C      -7.43      14.72      20.87
C      -7.42      15.71      19.88
C      -6.32      12.74      21.97
C       1.57      20.96       1.31
C       2.28      20.37       2.47
C       3.48      19.65       2.28
C       4.15      19.14       3.38
C       3.65      19.30       4.69
C       2.43      19.98       4.85
C       1.76      20.53       3.76
C       4.42      18.80       5.84
C      -6.94      18.99       5.88
C      -6.16      18.58       6.99
C      -4.75      18.85       7.07
C      -4.04      18.45       8.18
C      -4.68      17.82       9.26
C      -6.05      17.59       9.26
C      -6.81      17.95       8.10
C       4.53      17.73       8.02
C       3.80      18.15       6.93
C      -4.07      19.61       5.99
C      -3.57      20.90       6.26
C      -3.00      21.67       5.24
C      -2.93      21.16       3.94
C      -3.38      19.86       3.68
C      -3.94      19.09       4.69
C      -6.73      17.11      10.49
C      -7.45      18.01      11.27
C      -8.14      17.59      12.43
C      -8.11      16.28      12.86
C      -7.35      15.32      12.11
C      -7.21      13.97      12.52
C      -6.48      13.04      11.79
C      -5.80      13.48      10.62
C      -2.35      21.96       2.83
C      -5.89      14.79      10.21
C      -6.66      15.75      10.92
C      -8.91      15.91      14.05
C       2.82      14.93      13.99
C       1.99      14.69      15.08
C       2.15      15.44      16.26
C      -9.57      16.39      16.35
C      -8.74      16.62      15.26
C       1.16      15.31      17.36
C      -7.58      11.07      12.83
C      -6.45      11.63      12.21
C      -7.57       9.77      13.29
C      -6.43       8.97      13.12
C      -5.31       9.49      12.45
C      -5.32      10.81      12.01
C      -6.42       7.62      13.75
C       1.57      12.20      10.32
C       2.28      12.79       9.16
C       3.48      13.51       9.34
C       4.15      14.02       8.25
C       3.65      13.86       6.94
C       2.43      13.18       6.77
C       1.77      12.63       7.86
C       4.43      14.36       5.79
C       5.80      14.17       5.75
C       6.58      14.58       4.64
C      -4.74      14.31       4.56
C      -4.03      14.71       3.45
C      -4.68      15.35       2.37
C       6.69      15.57       2.37
C       5.93      15.21       3.53
C       4.53      15.43       3.61
C       3.80      15.01       4.70
C      -4.07      13.55       5.64
C      -3.57      12.26       5.38
C      -3.01      11.49       6.39
C      -2.94      12.00       7.70
C      -3.38      13.31       7.95
C      -3.94      14.07       6.94
C       6.01      16.05       1.14
C       5.29      15.15       0.36
C      -1.77       4.11      22.46
C      -1.74       5.42      22.03
C      -0.98       6.38      22.77
C      -0.85       7.73      22.37
C      -0.12       8.66      23.09
C       6.93      19.68       1.01
C      -2.36      11.20       8.81
C       6.84      18.38       1.42
C       6.08      17.41       0.71
C      -2.54       5.78      20.83
C      -3.54       6.77      20.89
C      -4.37       7.00      19.80
C      -4.22       6.26      18.62
C      -3.20       5.30      18.53
C      -2.37       5.07      19.63
C      -5.20       6.39      17.52
C      -1.22      10.63      22.05
C      -0.08      10.07      22.67
C      -1.21      11.93      21.60
C      -0.07      12.73      21.76
C     -11.69      12.21      22.43
C     -11.69      10.89      22.88
C      -0.05      14.08      21.14
C       4.79      -8.09      19.38
C       4.08      -6.79      19.36
C       2.89      -6.64      18.64
C       2.21      -5.43      18.66
C       2.71      -4.33      19.38
C       3.93      -4.48      20.07
C       4.60      -5.70      20.08
C       1.94      -3.07      19.44
C       0.56      -3.12      19.63
C      -0.22      -1.95      19.75
C      -1.63      -2.00      20.03
C      -2.34      -0.82      20.16
C      -1.69       0.43      20.07
C      -0.32       0.53      19.87
C       0.43      -0.67      19.68
C       1.83      -0.64      19.45
C       2.57      -1.80      19.34
C      -2.31      -3.30      20.24
C      -2.80      -3.63      21.51
C      -3.36      -4.89      21.75
C      -3.43      -5.83      20.72
C      -2.99      -5.48      19.43
C      -2.43      -4.23      19.19
C       0.36       1.84      19.98
C       1.08       2.15      21.14
C       1.77       3.37      21.27
C       1.74       4.34      20.28
C       0.97       4.09      19.09
C       0.84       5.05      18.07
C       0.11       4.81      16.91
C      -0.57       3.57      16.78
C      -4.02      -7.18      20.94
C      -0.48       2.62      17.77
C       0.29       2.83      18.95
C       2.54       5.57      20.49
C       3.54       5.95      19.58
C      -8.37       7.03      19.85
C      -8.52       7.76      21.04
C      -9.54       7.42      21.94
C       2.37       6.34      21.65
C      -7.54       8.81      21.41
C       1.22       6.61      15.60
C       0.08       5.81      15.83
C       1.21       7.60      14.63
C       0.06       7.81      13.84
C      -1.06       6.98      14.02
C      -1.05       5.99      15.00
C       0.05       8.96      12.91
O      -2.49      -5.77      14.64
O       1.12      -5.44      12.75
O       4.40       4.78      16.34
O       5.74       4.03      14.67
O      -4.77       3.21      12.95
O      -3.79       3.84      14.85
O      -1.26      12.29      12.35
O      -0.16      12.65      14.24
O      -5.34      11.92      21.85
O      -7.30      12.59      22.79
O      -3.88      17.48      10.33
O      -7.49      19.32      10.88
O       1.96      20.62       0.12
O       0.63      21.78       1.53
O      -1.60      22.96       3.03
O      -2.58      21.54       1.62
O       1.25      16.05      18.40
O       0.15      14.51      17.24
O      -7.40       7.37      14.53
O      -5.44       6.82      13.52
O      -3.88      15.68       1.30
O       5.26      13.84       0.75
O       1.96      12.54      11.51
O       0.63      11.38      10.10
O      -1.61      10.20       8.61
O      -2.59      11.62      10.02
O      -5.11       5.65      16.48
O      -6.22       7.18      17.65
O      -1.04      14.34      20.35
O     -11.82      14.88      21.36
O      -2.49       1.54      20.24
O       1.11       1.21      22.14
O       4.40      -9.01      18.54
O       5.73      -8.26      20.21
O      -4.76      -7.44      21.93
O      -3.78      -8.08      20.03
O      -7.63       9.41      22.53
O      -6.52       9.04      20.64
O       1.03       9.78      13.03
O      -0.93       9.11      12.09
