168

Ag       3.32      10.08      11.52
Ag       3.54      17.26      24.17
Ag       1.60       8.14      13.79
Ag       1.38       0.97       1.13
H       1.30      14.62       8.46
H       1.52      12.72      21.11
H       3.62       3.60      16.85
H       3.40       5.51       4.20
H       1.99      16.56       7.14
H       2.21      10.78      19.79
H       2.92       1.67      18.17
H       2.70       7.45       5.51
H       1.12      16.91       4.82
H       1.34      10.43      17.48
H       3.79       1.31      20.48
H       3.57       7.80       7.83
H       4.00      15.31       3.85
H       4.22      12.03      16.51
H       0.92       2.92      21.45
H       0.70       6.19       8.80
H       2.70      13.27       4.01
H       2.92      14.07      16.67
H       2.22       4.96      21.29
H       2.00       4.15       8.64
H       1.34      11.26       4.13
H       1.56      16.08      16.78
H       3.57       6.97      21.18
H       3.35       2.14       8.52
H       0.52       9.28       5.40
H       0.74      18.06      18.05
H       4.40       8.95      19.91
H       4.18       0.17       7.25
H       1.33       8.88       7.73
H       1.55       0.23      20.38
H       3.58       9.34      17.58
H       3.36      17.99       4.93
H       2.91      10.38       8.78
H       3.13      16.96      21.44
H       2.01       7.84      16.52
H       1.79       1.27       3.87
H       4.64      11.32       9.26
H       4.86      16.02      21.92
H       0.28       6.90      16.04
H       0.06       2.21       3.39
H       1.05      12.83       9.19
H       1.27      14.50      21.85
H       3.87       5.39      16.11
H       3.65       3.72       3.46
H       3.58      15.00       9.46
H       3.80      12.34      22.12
H       1.33       3.22      15.84
H       1.11       5.89       3.19
H       1.86      15.19      11.65
H       2.08      12.15      24.30
H       3.06       3.04      13.66
H       2.84       6.07       1.00
H       1.43      11.62      12.97
H       1.22      15.72       0.32
H       3.48       6.60      12.34
H       3.70       2.51      24.99
H       0.47      13.08      12.76
H       0.25      14.25       0.10
H       4.45       5.14      12.55
H       4.67       3.97      25.20
H       1.42      12.97      15.07
H       1.20      14.36       2.42
H       3.50       5.25      10.24
H       3.72       3.86      22.89
H       2.12      14.37      14.21
H       1.90      12.97       1.56
H       2.80       3.85      11.09
H       3.02       5.26      23.75
H       3.06      12.86      14.41
H       2.84      14.48       1.76
H       1.86       5.36      10.90
H       2.08       3.75      23.55
C       4.46      13.78       6.93
C       4.68      13.56      19.58
C       0.46       4.45      18.38
C       0.24       4.67       5.72
C       0.89      14.75       7.46
C       1.11      12.59      20.11
C       4.03       3.47      17.85
C       3.81       5.64       5.20
C       1.29      15.84       6.72
C       1.51      11.50      19.37
C       3.63       2.38      18.59
C       3.41       6.73       5.93
C       0.80      16.04       5.40
C       1.02      11.29      18.05
C       4.11       2.18      19.91
C       3.90       6.93       7.25
C       4.40      15.14       4.85
C       4.62      12.20      17.51
C       0.51       3.08      20.45
C       0.29       6.03       7.80
C       3.97      13.99       5.58
C       4.19      13.34      18.24
C       0.94       4.23      19.72
C       0.72       4.88       7.07
C       3.08      13.08       5.02
C       3.30      14.25      17.67
C       1.84       5.14      20.29
C       1.62       3.97       7.63
C       2.63      11.96       5.72
C       2.85      15.37      18.38
C       2.29       6.26      19.58
C       2.07       2.85       6.93
C       1.70      11.05       5.14
C       1.92      16.29      17.79
C       3.21       7.18      20.17
C       2.99       1.94       7.52
C       1.25       9.96       5.84
C       1.47      17.38      18.49
C       3.67       8.27      19.47
C       3.45       0.85       6.82
C       1.71       9.73       7.16
C       1.93      17.60      19.82
C       3.21       8.49      18.14
C       2.99       0.62       5.49
C       2.60      10.59       7.76
C       2.82      16.75      20.41
C       2.31       7.64      17.55
C       2.09       1.47       4.90
C       3.10      11.74       7.07
C       3.32      15.60      19.73
C       1.81       6.49      18.23
C       1.59       2.62       5.58
C       4.02      12.64       7.65
C       4.24      14.69      20.31
C       0.89       5.58      17.65
C       0.68       3.53       5.00
C       4.53      12.39       9.05
C       4.75      14.95      21.71
C       0.38       5.83      16.25
C       0.17       3.28       3.60
C       3.25      14.26      10.18
C       3.47      13.08      22.83
C       1.67       3.97      15.13
C       1.45       5.14       2.48
C       2.40      14.34      11.24
C       2.62      13.00      23.90
C       2.51       3.88      14.06
C       2.29       5.23       1.41
C       3.06      12.17      11.07
C       3.28      15.17      23.73
C       1.86       6.06      14.23
C       1.64       3.06       1.58
C       1.49      12.72      12.93
C       1.27      14.62       0.28
C       3.43       5.51      12.37
C       3.65       3.60      25.03
C       2.06      13.27      14.23
C       1.84      14.06       1.58
C       2.86       4.95      11.08
C       3.08       4.16      23.73
I       1.05       8.44      10.81
I       1.27       0.68      23.46
I       3.86       9.79      14.50
I       3.64      17.55       1.85
N       3.64      12.93      10.09
N       3.86      14.41      22.74
N       1.28       5.30      15.22
N       1.06       3.81       2.56
N       2.30      13.06      11.77
N       2.52      14.27      24.42
N       2.62       5.16      13.54
N       2.40       3.95       0.88
