228

Zn       1.19       3.38       8.22
Zn       2.92      12.03       7.03
Zn       4.65      -0.08      13.93
Zn       6.39       5.35       6.90
Zn       8.12      -3.30       8.09
Zn       9.85       8.80       1.18
H       2.29       5.44       7.25
H       4.02      -3.56       8.34
H       5.76       8.45       1.08
H       7.49       3.29       7.86
H       9.22      12.29       6.78
H       0.56       0.27      14.03
H      10.36       8.46       9.28
H       1.70      -3.80      11.97
H       3.43       5.19       2.69
H       5.16       0.26       5.84
H       6.90      12.53       3.15
H       8.63       3.54      12.42
H      10.38       6.90       7.16
H       1.71      -2.75       9.56
H       3.44       7.80       2.39
H       5.18       1.83       7.95
H       6.91      11.48       5.56
H       8.64       0.93      12.72
H       0.61      10.76       8.46
H       2.35      -1.94      13.54
H       4.08       4.75       5.09
H       5.81      -2.03       6.66
H       7.55      10.67       1.58
H       9.28       3.97      10.03
H       2.25       5.67       9.61
H       3.98      -5.49       9.71
H       5.71       6.30       0.11
H       7.45       3.06       5.51
H       9.18      14.21       5.40
H       0.51       2.43      15.01
H       0.52       6.12       9.51
H       2.25      -5.18      10.06
H       3.98       6.16       0.55
H       5.72       2.61       5.61
H       7.45      13.91       5.06
H       9.18       2.57      14.57
H       3.90       7.13       8.08
H       5.64      -3.43      10.21
H       7.37       6.90       2.13
H       9.11       1.60       7.04
H       0.44      12.16       4.91
H       2.17       1.83      12.99
H       4.34       9.43       7.25
H       6.07      -1.56      11.79
H       7.81       6.46       4.54
H       9.54      -0.70       7.87
H       0.87      10.29       3.33
H       2.60       2.27      10.58
H       2.04       4.26       5.35
H       3.77      -2.50       6.37
H       5.51      10.69       1.02
H       7.24       4.46       9.77
H       8.97      11.23       8.75
H       0.31      -1.97      14.10
H       1.41       4.72       3.75
H       3.14      -0.89       5.96
H       4.88      11.85       2.21
H       6.61       4.01      11.37
H       8.35       9.62       9.15
H      10.08      -3.12      12.90
H       0.38       3.86       4.91
H       2.11      -2.32       5.80
H       3.84      11.27       0.89
H       5.58       4.86      10.20
H       7.31      11.05       9.31
H       9.04      -2.54      14.23
H      10.13       6.24       4.84
H       1.46      -1.08       7.82
H       3.19      10.15       2.98
H       4.93       2.49      10.27
H       6.66       9.81       7.30
H       8.39      -1.42      12.14
H       1.29       8.07       5.48
H       3.02      -0.72       9.73
H       4.75       8.67       4.25
H       6.49       0.66       9.63
H       8.22       9.44       5.39
H       9.95       0.05      10.87
H       1.78       7.24       3.99
H       3.51       0.16       8.26
H       5.25      10.38       4.27
H       6.98       1.49      11.12
H       8.72       8.57       6.85
H       0.05      -1.65      10.85
H       2.65       6.93       5.51
H       4.38      -1.31       8.76
H       6.11       9.22       3.24
H       7.85       1.80       9.60
H       9.58      10.04       6.36
H       0.91      -0.49      11.87
H       1.80       0.38       4.17
H       3.53      14.04       2.41
H       5.27       4.93      13.36
H       7.00       8.35      10.95
H       8.73      -5.31      12.71
H       0.07       3.80       1.76
H       0.32       1.36       4.41
H       2.06      14.32       3.39
H       3.79       4.23      14.09
H       5.52       7.36      10.71
H       7.26      -5.59      11.73
H       8.99       4.50       1.02
H       0.54      -0.11       5.35
H       2.27      12.77       2.58
H       4.01       4.15      12.35
H       5.74       8.84       9.77
H       7.47      -4.04      12.54
H       9.21       4.58       2.77
C       9.42       5.04       7.04
C       0.75      -3.58       7.88
C       2.48       8.84       0.84
C       4.22       3.69       8.08
C       5.95      12.31       7.23
C       7.68      -0.11      14.27
C       0.95       8.64       8.85
C       2.68      -3.34      11.91
C       4.42       5.47       3.06
C       6.15       0.08       6.27
C       7.88      12.07       3.21
C       9.62       3.26      12.06
C       0.28       5.89       6.85
C       2.01      -2.99       8.53
C       3.74       8.58       1.68
C       5.48       2.84       8.27
C       7.21      11.71       6.59
C       8.94       0.15      13.44
C       1.29       9.91       8.38
C       3.03      -2.30      12.77
C       4.76       5.24       4.39
C       6.49      -1.18       6.74
C       8.23      11.03       2.35
C       9.96       3.49      10.73
C       1.87       7.60       8.71
C       3.60      -3.75      10.93
C       5.33       6.11       2.22
C       7.07       1.13       6.41
C       8.80      12.47       4.18
C       0.13       2.61      12.89
C       1.48       6.17       8.99
C       3.22      -4.70       9.84
C       4.95       6.58       0.85
C       6.68       2.56       6.12
C       8.42      13.43       5.28
C      10.15       2.15      14.27
C       3.13       7.89       8.17
C       4.86      -3.13      10.91
C       6.59       6.44       2.75
C       8.33       0.84       6.95
C      10.06      11.86       4.20
C       1.39       2.29      12.37
C       3.39       9.17       7.71
C       5.12      -2.09      11.79
C       6.85       6.20       4.08
C       8.59      -0.44       7.41
C      10.32      10.82       3.33
C       1.65       2.53      11.03
C       1.15       4.63       4.81
C       2.89      -1.85       6.42
C       4.62      10.97       1.61
C       6.35       4.09      10.30
C       8.09      10.58       8.70
C       9.82      -2.24      13.51
C       0.67       5.98       5.36
C       2.40      -1.65       7.86
C       4.13       9.83       2.50
C       5.87       2.75       9.76
C       7.60      10.38       7.26
C       9.33      -1.10      12.62
C       1.66       7.12       5.08
C       3.39      -0.84       8.70
C       5.12       9.50       3.62
C       6.86       1.61      10.04
C       8.59       9.57       6.42
C      10.32      -0.77      11.49
C       1.76       1.55       6.00
C       3.49      13.04       4.34
C       5.23       2.76      13.47
C       6.96       7.17       9.12
C       8.70      -4.31      10.77
C       0.03       5.97       1.65
C       1.08       0.74       4.91
C       2.81      13.57       3.09
C       4.54       4.11      13.30
C       6.28       7.99      10.21
C       8.01      -4.84      12.03
C       9.75       4.62       1.82
N       2.48      10.16       7.79
N       4.21      -1.66      12.70
N       5.94       5.63       4.91
N       7.68      -1.43       7.33
N       9.41      10.39       2.42
N       0.74       3.10      10.21
N       1.37       5.41       7.72
N       3.10      -3.98       8.54
N       4.84       8.07       0.82
N       6.57       3.32       7.40
N       8.31      12.71       6.58
N      10.04       0.66      14.29
O       8.41       5.45       6.40
O      10.14      -2.81       7.92
O       1.47       9.19       1.53
O       3.21       3.27       8.72
O       4.94      11.54       7.20
O       6.67      -0.46      13.59
O       9.45       4.01       7.78
O       0.78      12.72       7.37
O       2.51      -0.02      14.70
O       4.25       4.72       7.33
O       5.98      -3.99       7.75
O       7.71       8.75       0.42
O       0.94       1.92       6.95
O       2.68      12.40       5.14
O       4.41       1.75      13.30
O       6.14       6.81       8.17
O       7.88      -3.67       9.98
O       9.61       6.98       1.82
O       2.97       1.84       5.92
O       4.70      13.25       4.56
O       6.44       2.68      13.75
O       8.17       6.89       9.19
O       9.91      -4.52      10.56
O       1.24       6.05       1.37
