244

Zn      23.20      18.73      16.99
Zn      13.04       2.00      14.31
Zn      20.01      18.64      16.85
Zn      12.83       3.78      16.95
Zn      19.99       8.26      23.71
Zn      23.19       8.34      23.87
Zn      21.46       7.26      26.36
Zn      21.69       5.52      23.71
Zn      12.85      14.16      10.08
Zn      13.04      12.40       7.43
Zn      11.36      15.16       7.45
Zn      14.55      15.22       7.57
Zn      22.39       7.85       0.55
Zn      23.88      10.65       0.69
Zn       5.93       7.93       0.70
Zn      10.67      12.81      30.59
H      19.21       3.33      21.11
H      16.97       7.01      21.16
H      17.51       2.35      19.53
H      17.60      17.13       9.76
H      15.29      15.67      13.09
H      19.23      18.15      11.37
H      27.85      11.26      27.56
H      25.60       9.88      30.97
H      26.16      10.19      26.04
H       8.96       9.20       3.31
H      26.31      12.83       3.27
H      10.59      10.29       4.88
H      18.44      14.46      19.68
H      19.01      15.78      18.68
H      24.73      12.71      21.32
H      24.17      11.23      22.08
H      13.36       5.38      10.23
H      13.15       4.31      11.60
H      13.00      10.81      14.17
H      12.86      11.87      12.80
H      24.63      18.08      10.23
H      23.75      18.66      11.61
H       9.70      15.38      14.18
H      10.75      15.09      12.81
H       9.90       6.93      20.02
H      10.79       5.89      18.95
H      13.81      19.92      21.00
H      23.79       3.39      21.80
H      18.35       8.53      30.45
H      19.39       8.20      29.08
H      13.62      11.24      26.50
H      12.72      11.81      27.89
H      30.18      18.11      25.19
H      30.32      19.80      24.76
H      29.85      19.63      31.74
H      30.03      17.95      32.19
H      16.19       9.12       4.71
H      15.16      10.26       5.54
H      20.94      13.79       3.77
H      21.82      12.75       2.69
H       7.46       1.94       5.04
H      15.56      18.13       5.79
H      20.83       3.67       3.41
H      21.39       4.99       2.42
C      24.30      18.31      14.25
C      19.19      18.12      14.03
C      21.58      16.59      18.28
C      10.24       3.30      18.28
C      15.32       3.47      18.53
C      12.92       4.96      14.22
C      21.61      10.37      22.40
C      23.97       8.82      26.68
C      18.88       8.67      26.43
C      21.58       4.29      26.39
C      19.19       5.83      22.17
C      24.30       6.00      22.40
C      12.94      11.21      10.16
C      10.55      12.75       5.89
C      10.26      15.58      10.18
C      13.00      17.27       6.13
C      15.36      15.71      10.38
C      15.66      12.87       6.13
C      21.27      10.19       2.00
C       6.71      10.32       2.26
C       4.29       5.80       1.99
C      13.28      11.42      30.52
C      27.83      11.26      30.28
C      30.23      15.78      30.56
C      16.30       4.11      19.46
C      18.19       5.23      21.24
C      16.17       5.42      19.94
C      18.35       3.91      20.78
C      17.10       5.98      20.81
C      17.41       3.37      19.90
C      18.19      17.49      13.12
C      16.34      16.33      11.32
C      17.06      16.78      13.58
C      17.46      17.03      10.84
C      16.15      16.21      12.70
C      18.36      17.60      11.73
C      20.48      14.63      19.48
C      22.72      12.32      21.17
C      21.59      15.38      19.06
C      21.61      11.57      21.59
C      22.29      13.44      20.41
C      20.90      13.52      20.26
C      12.99       6.28      12.04
C      12.87       9.90      12.34
C      12.92       6.17      13.44
C      12.93      10.00      10.94
C      12.90       8.53      12.73
C      12.99       7.65      11.65
C      25.52      17.80      12.06
C      28.72      16.09      12.37
C      25.40      17.79      13.46
C      28.84      16.12      10.97
C      27.49      16.70      12.75
C      26.73      17.17      11.67
C       9.03       5.13      19.60
C       5.83       4.19      21.06
C       9.15       3.83      19.07
C       5.71       5.49      21.59
C       7.06       4.06      20.35
C       7.82       5.24      20.34
C      24.95       9.44      27.63
C      26.84      10.63      29.36
C      24.82       9.37      29.03
C      27.00      10.72      27.97
C      25.74       9.95      29.89
C      26.06      10.13      27.13
C      17.68       9.20      28.63
C      14.48      10.92      28.33
C      17.80       9.22      27.22
C      14.36      10.90      29.73
C      15.70      10.28      27.94
C      16.45       9.82      29.02
C      30.32      19.44      26.75
C      30.18      18.31      30.20
C      30.24      20.77      27.20
C      30.25      16.98      29.76
C      30.19      19.20      29.09
C      30.28      18.54      27.86
C       9.55      12.16       4.96
C       7.70      10.95       3.19
C       8.42      12.85       4.48
C       8.82      10.23       3.64
C       7.50      12.26       3.62
C       9.72      10.83       4.51
C      16.86      11.06       4.79
C      20.05      12.00       3.32
C      16.74      12.36       5.32
C      20.18      10.71       2.78
C      18.84      12.12       4.06
C      18.09      10.94       4.07
C       5.45       1.54       4.90
C       3.20       3.84       3.21
C       4.34       0.79       5.32
C       4.31       4.60       2.78
C       3.63       2.73       3.99
C       5.02       2.66       4.13
S      23.12      14.72      19.61
S      20.08      12.22      21.04
S      12.83       7.72      14.25
S      13.02       8.46      10.13
S      26.75      17.03      14.27
S      27.50      16.88      10.15
S       7.80       2.79      19.46
S       7.06       6.53      21.20
S      16.45       9.99      26.42
S      15.72      10.14      30.54
S      30.15      20.91      28.94
S      30.35      16.83      28.01
S      18.09      13.40       4.93
S      18.82       9.67       3.17
S       2.81       1.44       4.77
S       5.84       3.94       3.32
N      19.19      14.90      19.16
N      24.02      12.00      21.43
N      13.02       5.22      11.17
N      12.74      10.95      13.21
N      24.63      18.38      11.20
N       9.98      15.61      13.23
N       9.92       6.14      19.40
N       4.90       3.21      21.17
N      18.61       8.70      29.49
N      13.59      11.49      27.48
N      30.45      19.05      25.45
N      30.15      18.70      31.51
N      15.93      10.08       4.90
N      20.94      13.02       3.12
N       6.75       1.23       5.14
N      21.57       4.11       2.88
O      12.96       1.95      16.26
O      24.38      18.19      15.52
O      20.20      18.68      13.47
O      20.43      17.03      17.89
O      23.33      18.87      13.60
O      22.72      17.14      18.02
O      18.97      18.07      15.28
O      18.82      19.74      17.94
O      14.31       4.16      18.18
O      11.19       4.12      17.99
O      15.59       2.27      18.16
O      12.98       3.83      13.58
O      12.87       5.09      15.50
O      21.59       7.34      24.40
O      20.48       9.84      22.68
O      24.20       9.02      25.43
O      19.85       8.12      27.08
O      22.77       9.92      22.78
O      18.78       8.78      25.16
O      23.02       8.14      27.17
O      21.46       5.41      27.00
O      20.16       5.08      22.55
O      21.68       4.14      25.11
O      18.99       7.04      22.51
O      24.39       7.21      22.82
O      23.31       5.19      22.64
O      12.96      14.23       8.13
O      12.85      12.33      10.80
O      11.51      11.99       6.25
O      10.18      15.70       8.90
O      13.04      11.09       8.88
O      11.24      15.03      10.82
O      10.37      13.96       6.26
O      11.86      16.75       6.42
O      15.56      15.89       9.13
O      14.15      16.81       6.50
O      14.40      15.06      10.91
O      14.68      12.07       6.38
O      15.76      14.09       6.53
O      10.56      12.74      32.55
O      21.20       8.96       1.64
O       5.70      11.04       1.93
O       5.43       6.35       1.73
O      22.24      11.00       1.72
O      22.80       6.24       1.61
O       6.95       9.13       1.88
O      13.35      11.29      31.80
O      28.83      11.84      29.75
O      12.30      11.98      29.88
O      27.60      11.15      31.53
O      30.17      15.94      31.85
O      30.27      14.66      29.95
F      15.14       6.22      19.57
F      16.81      16.62      14.90
F      23.77       8.73      29.61
F       8.16      14.13       4.85
