219

Cu      20.26      20.63      22.82
Cu      22.14      20.32      20.30
Cu      20.06      22.74      20.48
Cu      20.30       6.05       3.66
Cu      22.68       5.83       5.73
Cu      20.08       4.04       6.11
Cu       5.97      20.33       3.73
Cu       3.66      20.25       5.91
Cu       5.83      22.58       5.96
Cu       5.73       5.95      22.43
Cu       3.45       5.85      20.23
Cu       5.70       3.58      20.32
Si      25.97      26.10      13.13
Si      -0.09      13.15      26.13
Si      13.06       0.06       0.20
H      21.35      18.32      24.66
H      23.72      17.67      21.09
H      17.56      24.45      21.45
H      17.90      21.59      24.69
H      23.70      21.12      17.66
H      20.99      24.48      18.02
H      21.21       8.59       1.99
H      24.59       8.14       4.67
H      17.48       2.43       5.31
H      17.98       4.96       1.82
H      24.55       4.56       7.95
H      20.82       2.50       8.77
H       5.15      17.88       1.92
H       2.01      17.73       4.89
H       8.26      24.42       5.07
H       8.48      21.30       2.08
H       1.85      21.10       8.36
H       4.81      24.25       8.45
H       4.87       8.53      24.04
H       1.70       8.36      21.09
H       8.10       1.81      21.39
H       8.13       5.04      24.28
H       1.68       4.79      17.83
H       4.78       1.77      17.89
H      22.59      16.72      25.75
H      24.57      15.71      22.05
H      25.82      13.94      23.22
H      24.09      14.94       0.62
H      25.84       9.44       3.15
H      22.12      10.74       1.38
H      23.34      12.46       0.12
H       0.91      11.18       1.92
H       3.57      16.72       0.47
H       1.60      15.43       4.08
H       0.37      13.73       2.80
H       2.11      15.03      25.48
H       0.40       9.65      22.62
H       4.08      10.77      24.57
H       2.87      12.47      25.87
H      25.33      11.37      23.89
H      16.20      22.67      25.81
H      15.71      25.36      22.47
H      13.84       0.27      23.69
H      14.68      23.82       0.73
H      10.00       4.08      25.30
H       9.62       0.66      22.68
H      11.44      25.76      23.97
H      11.97       2.87       0.30
H      15.73       1.34       4.26
H      16.31       3.79       0.75
H      14.34       2.53      25.86
H      14.02       0.04       3.07
H       9.88      25.61       3.91
H      10.39      22.27       1.22
H      12.15      23.50       0.03
H      11.55       0.56       2.72
H      22.50      25.70      16.68
H      24.28      21.97      15.47
H      25.61      23.15      13.77
H      23.70       0.61      14.96
H       0.41      22.69       9.53
H       4.05      24.65      10.77
H       2.80      25.88      12.50
H      25.30      23.90      11.27
H       1.22       4.01      15.53
H       3.13       0.35      16.77
H       1.99      25.39      15.03
H      -0.04       2.77      13.81
H      21.80       1.58      10.70
H      25.61       3.20       9.48
H       0.59       1.88      11.21
H      22.92       0.25      12.43
C      21.83      18.33      23.69
C      22.81      17.48      23.15
C      23.04      18.00      21.87
C      17.81      23.65      22.14
C      17.22      23.29      23.36
C      17.99      22.19      23.79
C      22.93      21.84      17.92
C      22.62      23.07      17.33
C      21.56      23.56      18.11
C      21.93       8.31       2.75
C      23.19       8.86       3.04
C      23.66       8.07       4.11
C      17.76       3.16       4.56
C      17.23       3.39       3.28
C      18.02       4.45       2.78
C      23.54       4.16       7.98
C      22.96       3.23       8.86
C      21.64       3.12       8.41
C       4.47      18.02       2.75
C       3.32      17.30       3.10
C       2.88      17.93       4.28
C       8.14      23.55       4.43
C       8.88      23.16       3.30
C       8.26      21.96       2.91
C       2.67      21.78       8.20
C       3.03      22.94       8.91
C       4.20      23.38       8.26
C       4.20       8.32      23.22
C       3.01       8.95      22.84
C       2.58       8.22      21.72
C       7.94       2.70      21.99
C       8.60       3.14      23.15
C       7.96       4.35      23.46
C       2.55       4.17      18.01
C       2.94       2.98      17.37
C       4.12       2.61      18.05
C      23.29      16.11      25.18
C      23.49      16.37      23.81
C      24.40      15.55      23.12
C      25.11      14.54      23.78
C      24.94      14.31      25.15
C      24.00      15.11      25.84
C      25.28      10.11       2.50
C      23.89       9.94       2.36
C      23.21      10.83       1.50
C      23.89      11.81       0.79
C      25.28      11.97       0.92
C      25.96      11.10       1.80
C       2.89      16.05       0.99
C       2.67      16.22       2.37
C       1.77      15.34       3.01
C       1.08      14.37       2.28
C       1.26      14.23       0.90
C       2.20      15.08       0.27
C       0.95      10.28      23.32
C       2.33      10.06      23.51
C       3.00      10.89      24.42
C       2.32      11.86      25.15
C       0.94      12.06      24.99
C       0.28      11.26      24.04
C      15.70      23.52      25.33
C      16.11      23.94      24.05
C      15.43      25.02      23.47
C      14.42      25.69      24.16
C      14.04      25.29      25.45
C      14.69      24.19      26.01
C      10.29       3.07      25.00
C       9.67       2.46      23.89
C      10.09       1.17      23.53
C      11.06       0.50      24.27
C      11.67       1.10      25.39
C      11.27       2.40      25.73
C      15.48       1.61       3.23
C      16.16       2.67       2.60
C      15.80       2.98       1.27
C      14.83       2.24       0.60
C      14.16       1.17       1.23
C      14.51       0.88       2.55
C      10.38      25.13       3.06
C       9.99      23.85       2.65
C      10.66      23.27       1.56
C      11.66      23.97       0.89
C      12.04      25.27       1.28
C      11.38      25.83       2.39
C      23.16      25.13      16.03
C      23.30      23.74      16.22
C      24.17      23.05      15.37
C      24.92      23.72      14.40
C      24.81      25.11      14.23
C      23.90      25.80      15.06
C       0.94      23.37      10.20
C       2.32      23.59      10.01
C       2.97      24.48      10.87
C       2.26      25.18      11.86
C       0.88      24.99      12.02
C       0.24      24.06      11.18
C       1.37       2.93      15.43
C       2.26       2.27      16.29
C       2.45       0.89      16.10
C       1.75       0.20      15.12
C       0.83       0.85      14.28
C       0.66       2.23      14.45
C      22.88       1.66      10.81
C      23.61       2.49       9.94
C      25.01       2.57      10.13
C      25.64       1.82      11.12
C      24.92       0.96      11.97
C      23.52       0.91      11.79
N      22.25      19.07      21.65
N      21.50      19.28      22.79
N      18.96      21.93      22.90
N      18.85      22.83      21.87
N      21.27      22.68      19.09
N      22.12      21.61      18.98
N      22.75       7.13       4.42
N      21.67       7.27       3.58
N      18.94       4.81       3.69
N      18.78       4.01       4.80
N      21.44       3.92       7.34
N      22.62       4.58       7.08
N       3.71      18.95       4.59
N       4.70      19.00       3.65
N       7.23      21.67       3.74
N       7.16      22.66       4.69
N       4.51      22.54       7.24
N       3.56      21.55       7.21
N       3.45       7.22      21.46
N       4.45       7.28      22.39
N       7.00       4.61      22.55
N       6.98       3.58      21.64
N       4.39       3.51      19.02
N       3.41       4.48      18.99
