96

Zn       5.67       7.77       9.73
Zn       5.67      10.54       9.72
H       1.24      13.78      10.47
H      10.09       4.54       8.99
H      10.08      13.78       9.01
H       1.26       4.53      10.44
H       6.13      11.33      16.38
H       5.20       6.98       3.08
H       4.95      11.28       3.03
H       6.38       7.03      16.42
H       7.44       7.56      18.42
H       3.89      10.75       1.04
H       6.71       7.51       1.41
H       4.63      10.80      18.05
H       7.46       5.64      10.75
H       3.88      12.67       8.70
H       3.87       5.65       8.70
H       7.47      12.67      10.75
H       7.55       3.15      10.79
H       3.79      15.17       8.67
H       3.78       3.15       8.66
H       7.56      15.17      10.79
H       4.78       1.26       7.76
H       6.56      17.05      11.69
H       6.54       1.26      11.69
H       4.80      17.05       7.76
H       2.37       6.66      10.95
H       8.97      11.65       8.50
H       8.98       6.66       8.49
H       2.36      11.65      10.97
H       6.25      11.30      13.89
H       5.09       7.01       5.57
H       4.82      11.29       5.52
H       6.52       7.02      13.93
C       5.01       9.16       7.19
C       6.32       9.15      12.26
C       6.38       9.16      13.76
C       4.95       9.15       5.70
C       6.74       8.26      18.86
C       4.60      10.05       0.59
C       6.14       8.20       0.79
C       5.20      10.10      18.66
C       5.27       9.13       1.41
C       6.06       9.18      18.04
C       6.67       5.04      10.31
C       4.67      13.27       9.15
C       4.66       5.04       9.14
C       6.68      13.27      10.31
C       6.70       3.65      10.33
C       4.64      14.66       9.13
C       4.63       3.65       9.12
C       6.71      14.66      10.33
C       5.66       2.92       9.73
C       5.68      15.39       9.73
C       5.15       0.72       8.63
C       6.19      17.59      10.82
C       6.17       0.73      10.82
C       5.17      17.59       8.64
C       5.68      16.87       9.73
C       5.66       1.45       9.73
C       3.10       9.16      10.32
C       8.24       9.15       9.14
C       1.44       6.66      10.40
C       9.90      11.65       9.05
C       9.91       6.66       9.04
C       1.43      11.65      10.41
C       0.82       5.47      10.10
C      10.52      12.84       9.35
C      10.53       5.47       9.34
C       0.81      12.84      10.12
C      10.45       7.93       9.45
C       0.89      10.39      10.01
C       0.89       7.93      10.00
C      10.45      10.38       9.45
C       9.75       9.15       9.27
C       1.59       9.16      10.19
C       6.28      10.37      14.46
C       5.05       7.94       5.00
C       4.89      10.35       4.97
C       6.45       7.96      14.48
C       6.20      10.38      15.85
C       5.13       7.93       3.61
C       4.96      10.34       3.58
C       6.37       7.97      15.87
C       6.23       9.18      16.58
C       5.11       9.13       2.88
N       5.67       5.72       9.73
N       5.67      12.59       9.73
O       5.06       8.04       7.78
O       6.27      10.28      11.67
O       6.29       8.01      11.69
O       5.06      10.30       7.76
O       3.72       8.05      10.34
O       7.62      10.27       9.13
O       7.63       8.03       9.15
O       3.71      10.28      10.28
