256

Zn      12.58       9.60      11.17
Zn      20.07      15.32      13.75
Zn      16.33      11.18      15.32
Zn      23.81      13.75       9.60
Zn      17.37       7.01       5.44
Zn       9.88       1.29       2.87
Zn      13.62       5.44       1.29
Zn       6.13       2.87       7.01
H      19.15      10.69       8.53
H      26.64      14.23      16.39
H      22.90       8.53      14.23
H      15.41      16.39      10.69
H      10.80       5.93       8.09
H       3.31       2.38       0.22
H       7.05       8.09       2.38
H      14.54       0.22       5.93
H      14.45      14.08      10.83
H      21.94      10.84      14.09
H      18.20      10.84      10.84
H      25.69      14.09      14.08
H      15.49       2.53       5.78
H       8.01       5.77       2.53
H      11.75       5.78       5.77
H       4.26       2.53       2.53
H      18.12      12.50       9.24
H      25.61      12.43      15.68
H      21.87       9.24      12.42
H      14.38      15.68      12.50
H      11.82       4.12       7.38
H       4.34       4.19       0.93
H       8.08       7.38       4.19
H      15.57       0.93       4.12
H      14.35      10.58       8.36
H      21.84      14.35      16.56
H      18.10       8.36      14.34
H      25.58      16.56      10.58
H      15.60       6.04       8.25
H       8.11       2.27       0.06
H      11.85       8.25       2.27
H       4.37       0.06       6.04
H      12.08      14.38       9.16
H      19.57      10.54      15.76
H      15.83       9.16      10.54
H      23.31      15.76      14.38
H      17.87       2.24       7.46
H      10.38       6.07       0.85
H      14.12       7.46       6.07
H       6.63       0.85       2.23
H       9.94      10.95      10.34
H      17.43      13.97      14.59
H      13.69      10.34      13.97
H      21.17      14.59      10.95
H      20.01       5.66       6.28
H      12.52       2.65       2.03
H      16.26       6.28       2.65
H       8.78       2.03       5.66
H      10.07       0.50      12.54
H      10.07       7.81      12.38
H      21.30      12.54       7.81
H       6.32      12.38       0.50
H      19.88      16.11       4.07
H      19.88       8.81       4.23
H       8.65       4.07       8.81
H      23.63       4.24      16.11
H      19.01      13.29      11.58
H      11.53      11.64      13.34
H      22.76      11.58      11.63
H      15.27      13.35      13.29
H      10.94       3.33       5.04
H      18.42       4.98       3.27
H       7.19       5.04       4.98
H      14.68       3.27       3.33
H      19.65       8.75       6.98
H      19.65      16.18       1.32
H      23.39       6.99      16.18
H       8.42       1.32       8.74
H      10.30       7.87       9.63
H      10.30       0.44      15.29
H       6.56       9.63       0.44
H      21.53      15.29       7.87
H      15.47       9.27       6.75
H      15.47      15.66       1.56
H      19.22       6.75      15.65
H      19.22       1.56       9.27
H      14.47       7.35       9.87
H      14.48       0.96      15.05
H      10.73       9.87       0.96
H      10.73      15.05       7.35
C      14.25      12.36       9.57
C      21.74      12.57      15.35
C      17.99       9.57      12.57
C      25.48      15.35      12.35
C      15.70       4.26       7.04
C       8.21       4.05       1.27
C      11.95       7.04       4.05
C       4.47       1.27       4.26
C      14.98      13.36      10.21
C      22.47      11.56      14.71
C      18.73      10.21      11.56
C      26.22      14.71      13.36
C      14.97       3.25       6.40
C       7.48       5.06       1.90
C      11.22       6.40       5.06
C       3.73       1.90       3.25
C      16.38      13.40      10.13
C      23.87      11.52      14.79
C      20.13      10.13      11.52
C      27.62      14.79      13.40
C      13.57       3.21       6.48
C       6.08       5.09       1.82
C       9.82       6.48       5.09
C       2.33       1.82       3.21
C      17.04      12.44       9.34
C      24.53      12.48      15.58
C      20.79       9.35      12.48
C      13.30      15.58      12.44
C      12.91       4.17       7.27
C       5.42       4.13       1.04
C       9.16       7.27       4.13
C      16.65       1.04       4.17
C      16.32      11.42       8.70
C      23.81      13.50      16.22
C      20.07       8.70      13.50
C      12.58      16.22      11.42
C      13.62       5.20       7.91
C       6.14       3.11       0.40
C       9.88       7.91       3.11
C      17.37       0.40       5.19
C      14.92      11.38       8.84
C      22.41      13.55      16.08
C      18.67       8.84      13.55
C      26.16      16.09      11.38
C      15.02       5.24       7.78
C       7.54       3.07       0.53
C      11.28       7.78       3.07
C       3.79       0.53       5.24
C      12.79      12.33       9.70
C      20.28      12.59      15.22
C      16.53       9.70      12.59
C      24.02      15.22      12.33
C      17.16       4.28       6.91
C       9.67       4.03       1.39
C      13.41       6.91       4.03
C       5.93       1.40       4.28
C      17.15      14.36      10.93
C      24.64      10.57      13.99
C      20.89      10.93      10.56
C      13.40      13.99      14.36
C      12.80       2.26       5.68
C       5.31       6.05       2.62
C       9.06       5.68       6.05
C      16.55       2.63       2.26
C      17.01      10.39       7.93
C      17.01      14.53       0.38
C      20.75       7.93      14.53
C       5.78       0.38      10.39
C      12.94       6.23       8.69
C      12.94       2.08      16.23
C       9.20       8.69       2.08
C      24.17      16.23       6.22
C      11.89      13.36       9.47
C      19.38      11.56      15.46
C      15.63       9.47      11.56
C      23.12      15.46      13.36
C      18.06       3.26       7.15
C      10.57       5.05       1.16
C      14.31       7.15       5.05
C       6.83       1.16       3.26
C      10.77      11.60      10.06
C      18.26      13.33      14.86
C      14.51      10.06      13.32
C      22.00      14.86      11.60
C      19.18       5.02       6.56
C      11.69       3.29       1.75
C      15.43       6.56       3.29
C       7.95       1.75       5.02
C      17.61      16.12      12.10
C      10.12       8.80      12.82
C      21.36      12.11       8.80
C      13.87      12.82      16.12
C      12.34       0.49       4.51
C      19.83       7.81       3.80
C       8.59       4.51       7.81
C      16.08       3.80       0.49
C      18.37      14.16      11.57
C      10.88      10.76      13.36
C      22.12      11.57      10.76
C      14.63      13.36      14.16
C      11.58       2.45       5.05
C      19.07       5.85       3.26
C       7.83       5.05       5.85
C      15.32       3.26       2.45
C      18.65       9.14       7.14
C      18.65      15.78       1.17
C      22.39       7.14      15.78
C       7.42       1.17       9.14
C      11.30       7.48       9.47
C      11.30       0.83      15.45
C       7.56       9.47       0.83
C      22.53      15.45       7.48
C      16.50       9.43       7.07
C      16.50      15.49       1.24
C      20.24       7.07      15.49
C       5.27       1.24       9.43
C      13.45       7.19       9.55
C      13.45       1.12      15.37
C       9.71       9.55       1.12
C      24.68      15.37       7.18
N      12.06      11.22      10.08
N      19.55      13.71      14.84
N      15.81      10.08      13.71
N      23.29      14.84      11.22
N      17.89       5.40       6.53
N      10.40       2.91       1.78
N      14.14       6.53       2.91
N       6.66       1.78       5.40
N      10.62      12.88       9.69
N      18.10      12.04      15.24
N      14.36       9.69      12.04
N      21.85      15.24      12.88
N      19.33       3.73       6.93
N      11.85       4.57       1.38
N      15.59       6.93       4.57
N       8.10       1.38       3.73
N      16.67      15.61      11.29
N      24.16       9.31      13.63
N      20.42      11.29       9.31
N      27.91      13.63      15.61
N      13.27       1.01       5.32
N       5.79       7.30       2.98
N       9.53       5.32       7.30
N       2.04       2.99       1.01
N      18.66      15.28      12.31
N      11.17       9.64      12.61
N      22.40      12.31       9.64
N      14.91      12.61      15.28
N      11.29       1.33       4.30
N      18.78       6.97       4.01
N       7.55       4.30       6.97
N      15.04       4.01       1.33
N      18.38      10.18       7.95
N      18.37      14.74       0.36
N      22.12       7.95      14.74
N       7.15       0.36      10.18
N      11.57       6.43       8.67
N      11.57       1.87      16.25
N       7.83       8.67       1.87
N      22.80      16.25       6.43
N      17.53       8.66       6.58
N      17.53      16.27       1.72
N      21.28       6.58      16.26
N       6.30       1.72       8.66
N      12.42       7.96      10.03
N      12.42       0.35      14.89
N       8.67      10.03       0.35
N      23.65      14.89       7.96
