186

Al      14.79       6.78      14.16
Al       3.21       4.06      14.14
Al       4.71       6.66      14.17
Al      11.75       1.03       0.01
Al       8.53       1.05       0.00
Al       9.90       3.57      28.24
H       5.34       1.84       6.26
H      18.10      11.39       8.67
H      11.40       0.31       6.39
H       9.73       0.82       6.61
H      14.88       8.57       8.20
H      14.53      10.24       8.61
H      14.75       9.10       5.92
H      17.29       7.82       7.89
H      17.17       8.34       5.61
H      14.41      10.78       6.33
H      13.26       6.06       5.76
H       7.33       1.77       8.28
H      13.66       6.11       8.07
H      11.64       3.00       8.52
H      11.56       4.76       8.50
H      11.15       4.72       6.19
H      11.22       2.96       6.21
H       2.02       2.75       7.85
H      13.85       1.81       8.15
H       1.60       2.69       5.55
H      15.21       5.30       7.81
H      14.80       5.23       5.51
H       4.20       4.12       7.50
H      13.42       1.76       5.84
H       8.27       5.20      22.20
H       7.76       5.56      19.94
H       7.31       1.88      19.63
H       8.49       3.19      19.72
H       8.72       2.65      22.00
H       7.32       1.58      21.95
H       4.29       3.96      20.30
H       4.93       2.33      20.23
H       4.72       4.15      22.58
H       5.85       5.79       5.90
H       6.09       5.94      20.35
H       6.65       5.77      22.60
H       5.01       2.41      22.57
H      14.74       8.70      22.45
H      14.80       8.44      20.13
H       9.85       0.10      19.64
H      14.88      10.84      19.71
H      14.77      11.20      22.02
H       9.73       0.47      21.95
H       5.30       8.72      20.23
H       7.84       5.73       7.91
H      18.59      10.47      19.95
H       5.18       9.08      22.54
H      16.28       7.84      22.62
H      18.49      10.83      22.26
H      14.31       2.15      22.46
H       1.40       2.17      20.15
H      11.14       3.12      19.53
H      12.26       1.76      19.72
H      11.82       1.76      22.03
H       8.98       3.44       6.68
H      10.74       3.15      21.83
H      13.67       5.82      20.01
H      11.96       5.48      19.76
H      13.39       5.75      22.32
H      15.31       3.82      20.28
H      14.93       3.80      22.58
H      11.66       5.52      22.09
H      18.48       9.51       5.81
H       5.32       8.97       8.09
H       9.86       0.30       8.89
H      12.83       7.77      13.35
H       6.83      11.34      27.45
C      14.55       4.48      12.21
C       5.85       4.27      11.00
C       7.92       3.59       6.87
C       6.81       3.63       5.73
C       7.29       4.86       7.53
C       6.37       3.94       8.44
C       6.17       4.90       6.44
C       5.26       3.97       7.30
C       7.07       3.48       4.35
C       6.11       4.10       9.82
C      17.58       8.86       7.71
C       5.35       4.57      12.32
C      17.08      11.25       8.30
C      10.42      -0.01       6.79
C      16.43      10.89       3.37
C      16.64       9.78       8.52
C      17.50       9.21       6.20
C      16.50      10.37       5.98
C      15.11       9.96       6.51
C      15.19       9.61       8.01
C      16.45      10.68       4.56
C      16.72       9.40       9.92
C      16.70       8.26      12.31
C      16.75       8.97      11.06
C      14.13       5.23       7.60
C      12.04       3.89       8.02
C      11.76       3.87       6.50
C      12.50       3.77       3.12
C      13.56       3.96       8.28
C      13.86       5.20       6.08
C      13.10       3.90       5.71
C      13.95       2.68       6.13
C      14.23       2.71       7.65
C      14.45       4.38      15.97
C      12.80       3.86       4.29
C      13.83       4.03       9.70
C      14.09       4.16      10.88
C       6.88       5.20      20.50
C       7.55       2.81      20.15
C       7.67       2.58      21.67
C       7.32       3.28      25.07
C       6.43       3.85      19.88
C       7.21       5.03      22.00
C       6.82       3.61      22.47
C       5.32       4.54      16.00
C       5.33       3.36      22.13
C       5.15       3.34      20.59
C       7.07       3.44      23.89
C       6.16       4.02      18.46
C       5.87       4.22      17.29
C      15.81       8.46      20.56
C      15.88      10.90      20.15
C      15.81      11.14      21.68
C      16.37      10.48      25.06
C      16.63       9.57      19.86
C      16.66       8.24      16.02
C      15.78       8.66      22.09
C      16.50       9.99      22.44
C      17.98       9.90      21.98
C      18.05       9.66      20.46
C      16.43      10.23      23.87
C      16.67       9.30      18.43
C      16.70       8.95      17.27
C      14.46       3.18      20.53
C      12.02       2.78      20.08
C      11.75       2.77      21.61
C       7.00       2.66       7.74
C      12.27       3.51      24.96
C      13.21       3.71      19.77
C      14.20       3.16      22.05
C      12.78       3.68      22.35
C      12.65       5.12      21.81
C      12.86       5.14      20.29
C      12.51       3.62      23.77
C      13.52       3.79      18.36
C      13.87       3.97      17.21
C      16.49      11.32       1.99
C       5.89       2.70       6.64
C       7.84       3.10       1.84
C      11.99       3.43       1.82
C      16.39      11.02      26.39
C       7.82       3.00      26.39
C      11.85       3.19      26.29
C       7.34       3.36       3.16
I      16.56       6.48      20.06
O      15.55       7.93      12.73
O       4.49       3.71      15.50
O       5.65       5.67      15.48
O       4.51       7.94      15.49
O      16.45       5.82      14.15
O      12.36       2.33       1.34
O      11.06      -0.00       1.53
O      15.36      11.42       1.37
O       7.52       1.99       1.30
O       8.63       3.97       1.34
O      11.14       4.25       1.29
O      14.19       5.58      12.70
O      12.21       2.06      26.75
O      17.52      11.30      26.88
O      15.25      11.23      26.95
O       7.53       1.86      26.90
O       8.57       3.88      26.94
O      11.09       4.04      26.90
O      10.01       1.81      28.25
O      15.34       3.62      12.76
O       4.57       3.72      12.85
O       5.67       5.71      12.82
O       4.54       7.97      12.86
O      15.53       7.92      15.57
O      14.19       5.55      15.57
O      15.24       3.54      15.39
O      13.27       7.66      14.20
O      13.29       0.19       0.05
