112

Zn       8.39       7.76       9.81
Zn       5.62       7.76       9.82
H       4.82       7.53      14.06
H       5.00       1.03       9.13
H       9.06       0.98      10.56
H       5.04      14.49      10.53
H       9.10      12.03       9.09
H       5.03       3.52       9.17
H       9.08       3.47      10.54
H       5.05      12.00      10.48
H       0.98       8.57       7.81
H      13.03       5.87      10.88
H       0.98       6.94      11.82
H       9.07       7.88       5.61
H      13.03       9.64       8.75
H       3.49       8.53       7.90
H      10.52       5.96      10.83
H       3.49       6.98      11.73
H      10.52       9.56       8.81
H       3.33       6.50      15.57
H       3.21       8.28      15.45
H       2.34       8.39      17.80
H       1.31       7.33      16.80
H       2.48       6.63      17.95
H       4.81       7.59       5.57
H      10.71       7.20       4.24
H      10.55       8.97       4.14
H      11.46       8.91       1.78
H      12.62       8.21       2.95
H      11.65       7.14       1.91
H       3.18       8.27       4.15
H       3.34       6.49       4.10
H       2.49       6.50       1.72
H       1.30       7.22       2.84
H       2.31       8.27       1.80
H       9.07       8.05      14.02
H      10.57       9.11      15.49
H      10.70       7.34      15.38
H      11.64       7.25      17.71
H      12.62       8.32      16.68
H      11.48       9.02      17.85
H       7.80       9.82      18.37
H       6.16       5.70       1.27
H       7.80       9.68       1.21
H       6.16       5.84      18.42
H       9.09      14.52       9.08
C       7.08      10.37       9.78
C       7.03       0.82       9.84
C       1.49       8.22       8.71
C      12.52       6.72      10.42
C       1.49       7.29      10.92
C      12.52       8.79       9.21
C       2.88       8.20       8.74
C      11.13       6.75      10.39
C       2.88       7.31      10.89
C      11.13       8.76       9.24
C       0.77       7.75       9.82
C       7.08       5.14       9.85
C      13.24       7.76       9.82
C       6.93       7.75       7.20
C       6.93       7.77      12.43
C       5.74       7.64      14.63
C       8.16       7.83       5.03
C       5.73       7.65       5.01
C       8.16       7.94      14.60
C       5.76       7.66      16.03
C       8.16       7.82       3.63
C       5.75       7.62       3.61
C       8.21      12.58       9.40
C       8.16       7.94      16.00
C       6.97       7.81      16.74
C       6.96       7.71       2.89
C       6.94       7.78      13.93
C       6.94       7.74       5.70
C       7.44       8.95      18.92
C       6.52       6.57       0.71
C       7.44       8.79       0.68
C       6.52       6.72      18.95
C       6.97       7.69       1.41
C       5.90       2.95       9.48
C       6.98       7.83      18.22
C       8.21      13.97       9.41
C       5.89       1.56       9.46
C       8.18       1.53      10.24
C       5.92      13.96      10.19
C       3.36       7.44      16.15
C       2.31       7.45      17.24
C      10.56       8.04       3.55
C      11.64       8.08       2.48
C       3.35       7.41       3.48
C       8.19       2.92      10.24
C       2.30       7.35       2.39
C      10.56       8.18      16.08
C      11.64       8.19      17.14
C       5.92      12.57      10.17
C       7.07      11.87       9.78
C       7.06       3.65       9.86
C       7.06      14.69       9.82
N       3.56       7.76       9.82
N      10.45       7.76       9.82
O       8.20       9.80       9.56
O       9.30       7.89       2.87
O       4.62       7.54       2.83
O       9.30       8.05      16.76
O       5.97       5.73       9.62
O       8.20       5.72      10.07
O       5.98       9.78      10.01
O       8.04       7.55       7.80
O       5.81       7.55      11.85
O       8.04       7.99      11.83
O       5.80       7.95       7.78
O       4.63       7.56      16.80
