108

Zn      15.46      -3.09      10.31
Zn      -6.79      12.03       5.91
Zn       8.97      11.38       8.25
Zn      -0.70      -2.29       7.73
H      14.60      -4.67      13.01
H      10.35      13.23       3.23
H      10.58       9.72      10.26
H      -0.99       0.98       7.69
H       1.98      -2.35       9.46
H       6.62       9.90       6.07
H      -4.72      10.10       7.36
H      -3.78       0.09      10.90
H       2.52      -1.04       7.29
H       6.68      12.47       6.06
H       7.51       9.34      10.40
H      15.85      -0.84       5.84
H       2.23      -1.97      15.88
H       3.29       2.79      15.37
H       4.10       8.73       0.99
H       4.74       0.66      14.16
C      14.52      -5.37      12.18
C      10.19      13.90       4.07
C      -3.96      13.33       6.07
C      13.05      -2.89       8.60
C      -7.25      10.00       9.45
C      -1.62       0.53       8.45
C       1.09      -2.54      10.06
C       7.61      10.12       5.68
C      -5.61      10.20       7.97
C      -3.05       0.07      10.09
C      -0.47      -2.70      11.60
C       9.41      10.47       4.48
C       2.35      -2.04       6.90
C       6.82      13.10       6.92
C       7.75      10.30      10.85
C      16.15      -1.79       5.39
C       7.62      10.70      12.19
C       9.67      15.21       4.04
C       3.29      -2.98       6.45
C      12.32      -3.39       7.49
C      -6.00       9.45       9.10
C      -2.50       1.15       9.37
C       0.86      -2.22      11.40
C       8.03      10.16       4.34
C       7.13       8.31       0.02
C       1.72       1.05      15.12
C       2.46      -0.91      15.79
C       3.08       1.72      15.49
C       1.61      -1.48      12.32
C       7.31      10.00       3.15
C       3.86       0.55      14.80
C       4.98       8.83       0.35
C       2.50      -0.14      14.40
C       6.35       9.50       0.77
C       2.10      -0.79      13.20
C       6.77       9.89       2.06
C       4.68      -2.90       6.45
C      10.99      -3.17       7.15
C       5.91      -2.86       6.50
C       9.79      -3.05       6.92
C       7.24      -2.88       6.60
C       8.47      -2.94       6.72
C      -2.81       2.51       9.52
C      -5.33       8.32       9.59
C      -3.18       3.67       9.68
C      -4.74       7.26       9.77
C      -3.65       4.92       9.80
C      -4.15       6.05       9.85
C       7.15      10.00      13.31
C      15.83      -1.47       2.87
C       6.78       9.49      14.36
C       9.39      16.46       1.76
C       6.44       8.94      15.54
C       9.51      17.02       0.54
N      14.89      -5.02      10.95
N      10.53      13.56       5.32
N      -5.25      13.60       6.29
N      14.27      -3.44       8.66
N      10.90      10.96       8.56
N      -1.66      -0.81       8.63
N      -0.02      -3.12       9.51
N       8.66      10.41       6.49
N      -6.57      11.08       7.65
N      -2.55      -1.09       9.64
N      -0.96      -3.22      10.46
N       9.76      10.63       5.75
N       1.10      -2.55       6.80
N       7.96      13.09       7.65
N       8.25      11.32      10.12
N      16.67      -2.78       6.14
N       8.25       7.66       0.69
N       0.61       1.76      14.47
N      -3.63      12.05       5.55
N      12.62      -2.08       9.69
N      -1.33      -2.51      12.71
N      10.40      10.70       3.49
O       9.39       7.94       0.30
O       7.96       6.91       1.63
O      -0.50       1.74      15.01
O       0.90       2.32      13.39
O      -2.44      11.76       5.41
O      -4.59      11.27       5.28
O      11.53      -1.50       9.60
O      13.36      -2.04      10.71
O      -0.85      -2.20      13.80
O      -2.58      -2.64      12.50
O      10.14      10.50       2.30
O      11.54      11.12       3.88
