244

Zn      25.85       8.24      16.22
Zn       9.29       7.28      13.74
Zn       9.48       5.69      16.41
Zn      10.70       8.67      16.15
Zn      19.89       1.42      23.02
Zn      18.66       4.35      22.68
Zn      18.09       2.76      25.38
Zn      16.74       1.79      22.66
Zn      18.42      12.35       9.82
Zn      16.92      11.35       7.12
Zn      20.04      11.64       7.12
Zn      18.12      14.23       7.18
Zn       8.94      15.58       0.78
Zn       1.77       0.77       0.48
Zn      16.96       1.16       0.74
Zn      18.10      14.94      29.34
H      29.38      15.00      20.72
H      18.59      15.85      12.79
H      20.27       6.26      19.48
H      21.13       7.05      20.82
H      22.81       8.00      19.19
H      21.96       7.20      17.85
H      16.64      10.46      13.27
H      15.90      12.07      13.23
H      14.07      11.27      14.78
H      14.83       9.66      14.84
H      21.07      12.05      13.28
H      20.20      10.49      13.27
H      21.95       9.50      14.80
H      22.82      11.06      14.81
H      13.81       2.07      19.72
H      12.97       2.71      21.15
H      11.18       3.69      19.67
H      12.02       3.05      18.23
H      18.16       9.22      30.07
H      25.62      -0.23      26.05
H      24.85      -1.83      26.01
H      23.06      -0.94      24.48
H      23.81       0.67      24.53
H      13.87       1.14      30.28
H      14.75      -0.41      30.21
H      16.47       0.64      28.68
H      15.59       2.18      28.74
H      21.14       4.88       2.75
H       5.56      -0.04       2.18
H       4.71       0.71       3.55
H       6.45      -0.20       5.14
H      16.51      16.43       3.76
H      24.74      12.76       2.71
H      25.61      13.45       4.10
H      23.84      12.56       5.66
H      22.99      11.84       4.28
C      25.15       8.74      13.42
C       9.35       4.37      13.81
C      25.24       5.82      17.80
C      11.99       6.54      17.71
C      27.20      10.50      17.54
C      11.66       8.92      13.46
C      21.26       3.57      21.54
C      18.30       5.70      25.28
C      20.56       1.18      25.88
C      15.55       1.27      25.31
C      18.20      -0.45      21.46
C      16.17       4.25      21.17
C      15.83      10.96       9.84
C      18.72       9.43       5.79
C      21.03      11.02       9.86
C      20.65      14.11       5.67
C      18.30      15.30       9.95
C      15.70      13.61       5.73
C      11.52      15.79       2.19
C      18.99       3.02       1.92
C      24.82      16.29       2.14
C      24.80      -0.87      29.43
C      18.26      12.00      29.36
C      11.50      -1.08      28.89
C      26.09      12.59      18.65
C      28.36      14.80      20.40
C      27.15      11.75      18.32
C      27.31      15.65      20.70
C      27.92      13.69      19.65
C      26.53      13.71      19.40
C       9.15       2.93      11.68
C       9.31      -0.66      12.11
C       9.31       3.12      13.05
C      18.35      16.54      10.75
C       9.32       0.71      12.46
C       9.16       1.56      11.35
C      22.35       4.05      20.64
C      24.31       5.16      18.78
C      22.20       5.29      20.01
C      24.51       3.90      19.42
C      23.13       5.81      19.12
C      23.56       3.36      20.32
C      21.27       6.48      19.89
C      22.32       7.07      18.88
C      14.70      10.45      10.68
C      12.62       9.50      12.47
C      14.79      10.55      12.06
C      12.47       9.43      11.06
C      13.79      10.10      12.93
C      13.49       9.88      10.18
C      15.69      10.99      13.20
C      14.55      10.49      14.18
C      22.14      10.43      10.68
C      24.16       9.28      12.44
C      22.06      10.48      12.07
C      24.28       9.21      11.02
C      23.02       9.93      12.91
C      23.31       9.79      10.16
C      21.19      10.96      13.22
C      22.29      10.34      14.17
C      15.16       4.96      20.32
C      13.10       6.09      18.61
C      14.01       4.27      19.96
C      14.25       6.84      18.98
C      13.02       4.81      19.15
C      15.26       6.29      19.82
C      13.28       2.94      20.13
C      12.16       3.56      19.20
C      18.41       8.27      25.60
C      18.24       9.46      29.02
C      18.32       6.95      26.05
C      18.31      10.77      28.56
C      18.28       8.55      27.94
C      18.38       9.18      26.69
C      23.65      -0.35      28.62
C      21.56       0.66      26.87
C      23.75      -0.37      27.24
C      21.41       0.66      28.29
C      22.75       0.12      26.40
C      22.44       0.18      29.14
C      24.66      -0.76      26.09
C      23.53      -0.20      25.14
C      12.48      -0.55      27.90
C      14.46       0.64      26.12
C      13.64       0.07      28.36
C      13.30       0.00      25.62
C      14.58       0.64      27.51
C      12.33      -0.59      26.48
C      14.40       0.44      29.62
C      15.47       1.10      28.66
C      17.77       7.32       4.67
C      20.11       5.10       3.02
C      18.80       8.18       5.03
C      19.04       4.28       2.68
C      19.65       6.22       3.75
C      18.25       6.21       3.94
C      12.51      15.15       3.11
C      14.56      14.10       4.90
C      13.67      15.85       3.45
C      13.38      13.36       4.59
C      14.64      15.36       4.31
C      12.38      13.87       3.72
C       5.23      -0.20       3.21
C      15.51      16.59       4.20
C      23.68      15.81       2.98
C      21.63      14.76       4.75
C      23.76      14.55       3.55
C      21.52      16.05       4.16
C      22.78      14.05       4.41
C      22.52      16.56       3.30
C      24.62      13.30       3.65
C      23.51      12.74       4.63
S      28.68      12.32      18.94
S      25.78      15.10      20.07
S       9.48       1.62      13.92
S       9.03       0.69       9.88
S      18.20       6.84      27.78
S      18.43      10.90      26.83
S      20.36       7.63       4.47
S      17.50       4.85       3.23
Cl      24.46      12.37      18.21
Cl       8.98       4.14      10.49
Cl      18.54       8.80      23.99
Cl      16.11       7.51       5.00
Cl      25.94       2.99      19.15
Cl      23.92       1.86      21.08
Cl      11.00       8.85      10.39
Cl      13.20       9.69       8.50
Cl      25.59       8.37      10.29
Cl      23.59       9.68       8.47
Cl      14.46       8.46      18.45
Cl      16.59       7.29      20.24
Cl      19.96       1.22      29.03
Cl      22.15       0.18      30.84
Cl      12.99      -0.07      23.92
Cl      11.00      -1.39      25.75
Cl      13.11      11.83       5.34
Cl      11.03      12.86       3.40
Cl      10.98      -0.29       4.50
Cl      13.08       0.76       2.60
O       9.21       7.49      15.69
O      24.73       8.59      14.62
O       9.01       5.43      13.19
O      26.25       5.17      17.40
O      26.33       8.49      13.01
O      24.91       7.01      17.45
O       9.71       4.29      15.04
O      11.01       5.71      17.63
O      28.39      10.06      17.35
O      12.09       7.65      17.09
O      26.11       9.98      17.14
O      11.07       7.84      13.14
O      11.56       9.52      14.58
O      18.36       2.57      23.45
O      21.17       2.33      21.83
O      18.49       5.78      24.02
O      19.60       1.90      26.30
O      20.46       4.49      21.92
O      20.80       0.85      24.67
O      18.11       4.64      25.97
O      16.40       1.96      25.98
O      17.13       0.26      21.50
O      15.58       1.07      24.06
O      19.31      -0.18      22.02
O      17.35       4.72      21.26
O      15.74       3.19      21.72
O      18.40      12.41       7.86
O      16.86      11.35      10.49
O      17.59       9.71       6.31
O      21.09      10.92       8.60
O      15.69      10.98       8.58
O      20.08      11.55      10.54
O      19.79      10.13       5.88
O      21.07      13.03       6.21
O      18.24      15.47       8.69
O      19.50      14.63       5.83
O      18.34      14.18      10.58
O      15.96      12.36       5.73
O      16.36      14.51       6.34
O      18.38       0.03       0.03
O      10.35      15.30       2.11
O      20.07       2.49       1.48
O      15.82       0.19       2.01
O      11.96      16.82       1.56
O      25.56      15.36       1.64
O      17.80       2.57       1.77
O      24.99      -0.42      30.60
O      18.27      13.09      28.70
O      25.53      -1.73      28.82
O      18.20      11.86      30.63
O      11.96      -1.25      30.08
O      10.30      -1.29      28.52
