73

Zn       3.77       5.46       5.64
Zn       6.57       5.55       5.57
H       1.56       2.42       4.87
H       8.62       8.64       6.66
H      10.09       9.32       8.57
H       2.65      10.06       8.15
H       6.56       7.35       9.93
H       6.35       7.14       1.35
H       4.10       2.32       1.21
H       2.59       3.25       1.30
H       4.40       2.51       9.76
H       2.87       3.39       9.83
H       8.80       5.39       3.53
H       0.24       1.93       2.81
H       1.56       5.38       3.54
H       1.57       4.89       8.70
H       1.55       6.67       8.55
H       8.83       4.84       8.71
H       8.78       6.62       8.59
H       7.65       1.17       2.98
H       7.91       1.37       7.27
H       7.13       9.68       4.96
H       3.04       1.32       6.17
H       2.09       9.41       3.93
H       9.52       8.71       4.35
C       5.26       5.67       8.20
C       0.52       2.09       4.93
C       6.25      10.28       5.19
C       5.05       9.60       5.42
C       3.89      10.34       5.76
C       3.90       0.72       5.88
C       5.10       1.40       5.64
C       6.24       0.66       5.29
C       1.70       9.38       4.95
C       0.39       8.98       5.18
C       9.66       8.95       6.49
C       5.08       2.90       5.73
C       0.70       9.33       7.55
C       2.02       9.74       7.31
C       2.53       9.77       6.01
C       4.66       4.61      10.41
C       5.30       5.62       9.69
C       6.04       6.55      10.45
C       5.76       6.40       0.79
C       5.09       5.39       1.51
C       4.37       4.48       0.75
C       3.57       3.19       0.80
C       5.17       5.34       3.00
C       3.87       3.32      10.27
C       9.36       5.61       6.71
C       9.37       5.45       4.46
C       0.99       5.45       4.46
C       0.98       5.62       6.71
C       1.09       5.74       8.21
C       9.27       5.71       8.22
C       5.11       8.10       5.41
C       9.55       1.82       3.79
C       8.22       1.38       3.89
C       7.61       1.23       5.14
C       8.36       1.49       6.29
C       9.69       1.92       6.19
C       0.63       2.17       7.40
N       8.63       5.52       5.60
N       1.72       5.53       5.61
N       1.15       2.37       8.43
O       4.12       5.76       7.65
O       6.38       5.58       7.61
O       3.96       3.45       5.96
O       6.18       3.51       5.55
O       4.09       5.05       3.62
O       6.29       5.61       3.54
O       4.03       7.46       5.24
O       6.26       7.59       5.60
