156

Al      11.83       8.97      14.11
Al      13.55       6.26      14.14
Al      15.04       8.86      14.14
Al       4.94       2.98      28.23
Al       6.72       5.70       0.02
Al       8.20       3.09       0.02
H       2.52       3.86      20.33
H       9.17       0.29      20.34
H       8.89       7.75      20.35
H       9.41       8.09       6.20
H      16.06      11.67       6.21
H      15.77       4.20       6.23
H      10.03      10.28      14.88
H       3.11       1.83       0.81
C      13.73      10.42      16.00
C      10.06       5.87       5.65
C       6.95       0.26       5.72
C       3.66       5.89       5.80
C      16.02       5.73      21.79
C      14.57      11.08      21.82
C      10.57       7.09      21.89
C       9.18       6.23       7.67
C       7.76       0.87       7.70
C       3.73       4.86       7.77
C      16.26       7.01      20.90
C      11.59       6.66      16.06
C      13.32      10.65      20.96
C      11.59       6.20      21.07
C       9.42       4.95       6.78
C       6.50       1.29       6.85
C       4.74       5.74       6.95
C       4.00       5.83      23.85
C       6.84       0.55      23.92
C       9.73       5.63      23.99
C      10.87       6.13       9.74
C      13.74      11.40       9.80
C      15.69       6.73      15.96
C      16.61       6.32       9.88
C      16.58       6.22      18.40
C      13.79      11.38      18.47
C      10.80       6.20      18.54
C       9.74       5.73       4.28
C       6.96       0.57       4.35
C       3.95       5.75       4.43
C      13.71      10.39      12.25
C      11.58       6.62      12.24
C      15.71       6.78      12.32
C       6.88       1.54       1.89
C       6.83       1.55      26.37
C       4.71       5.33      26.35
C       8.83       5.17      26.44
C       4.59       6.29      20.44
C       6.04       0.85      20.55
C       9.96       4.75      20.63
C      11.48       5.66       6.33
C      12.93      11.10       6.44
C      16.84       7.20       6.51
C      17.68       7.21      21.54
C       4.75       5.30       1.94
C      12.45      11.76      21.65
C      11.04       4.90      21.76
C      10.83       4.74       7.44
C       5.64       0.18       7.54
C       4.19       7.04       7.65
C       4.26       5.67      25.03
C       6.87       0.91      25.08
C       9.40       5.48      25.16
C      11.12       6.29      10.92
C      13.77      11.03      10.96
C       8.86       5.20       1.84
C      16.28       6.47      11.04
C      16.26       6.41      17.24
C      13.77      11.04      17.30
C      11.11       6.32      17.38
C       9.43       5.54       3.12
C       6.94       0.92       3.19
C       4.27       5.63       3.26
C       4.33       5.02      21.33
C       7.29       1.25      21.42
C       8.96       5.65      21.45
C      16.89       6.08      19.77
C      11.21       6.93       7.22
C      14.18      10.70       7.30
C      15.84       6.29       7.34
C       3.72       5.95      22.48
C       6.84       0.23      22.55
C      10.03       5.78      22.63
C      10.59       6.01       8.36
C      13.74      11.72       8.44
C      16.91       6.16       8.51
C       2.93       4.81      20.69
C      13.78      11.69      19.84
C       8.17       0.16      20.73
C       9.50       6.95      20.77
C       9.81       7.14       6.57
C      15.06      11.80       6.61
C      16.38       5.00       6.65
C      10.50       6.06      19.92
O      11.28       7.80      15.62
O       5.74       1.82       1.43
O       5.52       6.17       1.37
O       9.16       4.06       1.35
O      11.22       7.73      12.72
O      14.90       5.94      12.82
O      14.84      10.17      12.84
O       4.37       4.20      26.81
O       8.01       6.02      26.93
O       7.96       1.79      26.93
O      12.57      10.06      12.66
O      14.87       5.90      15.46
O      12.37       5.76      12.80
O      16.02       7.92      12.82
O       5.69       1.86      26.81
O       5.48       6.19      26.94
O       9.14       4.04      26.95
O      13.49       8.02      14.14
O       6.66       3.93       0.02
O      14.87      10.13      15.48
O       4.42       4.18       1.48
O       8.05       6.05       1.33
O       8.02       1.81       1.35
O      12.59      10.17      15.51
O      12.34       5.79      15.47
O      16.01       7.87      15.45
O      10.30       9.81      14.08
O       3.41       2.14      28.19
F      18.19       8.39      21.98
F      12.60       5.37       5.64
F      12.10      10.26       5.77
F      16.56       8.34       5.85
F      15.37       7.99      20.63
F      12.91       9.40      20.68
F      12.89       6.48      20.83
F       8.53       3.97       6.51
F       6.08       2.55       6.57
F       6.04       5.46       6.71
F      14.91       5.44      22.49
F      11.20      11.60      22.12
F      15.41      10.24      22.48
F      10.87       8.23      22.55
F       8.06       6.52       8.36
F       8.59       1.72       8.36
F       4.02       3.71       8.42
F       5.21       4.03      21.59
F       7.69       2.51      21.70
F       7.65       5.40      21.69
F      12.10       7.92       7.47
F      14.59       9.44       7.58
F      11.78       3.90      22.27
F      14.53       6.55       7.57
F      11.34       3.57       7.88
F       4.38       0.34       8.02
F       4.94       8.05       8.16
F       5.71       6.58      19.74
F       5.21       1.69      19.89
F       9.67       3.61      19.96
