300

Cu       3.93       9.86      13.59
Cu       0.34       0.01      11.14
Cu       4.68       9.83      11.14
Cu       8.27      19.68      13.59
H       0.59      19.45      18.12
H       3.67       9.60       6.60
H       8.02       0.24       6.60
H       4.94      10.09      18.12
H       1.46      17.51      16.84
H       2.81       7.66       7.88
H       7.15       2.18       7.88
H       5.80      12.03      16.84
H       7.77      14.85      19.25
H       5.19       5.00       5.47
H       0.84       4.84       5.47
H       3.42      14.69      19.25
H       6.90      16.79      20.53
H       6.06       6.94       4.20
H       1.72       2.91       4.20
H       2.55      12.76      20.53
H       2.73      14.43      15.39
H       1.54       4.58       9.34
H       5.88       5.27       9.34
H       7.07      15.12      15.39
H       4.03      12.78      14.06
H       0.24       2.93      10.67
H       4.58       6.91      10.67
H       8.37      16.76      14.06
H       1.25       9.79      14.75
H       3.01      19.64       9.98
H       7.36       9.90       9.98
H       5.60       0.06      14.75
H       8.55      11.29      16.21
H       4.40       1.44       8.51
H       0.06       8.40       8.51
H       4.21      18.25      16.21
H       8.56       2.13      20.68
H       4.40      11.98       4.04
H       0.05      17.57       4.04
H       4.22       7.72      20.68
H       7.95       4.25      19.52
H       5.00      14.10       5.21
H       0.66      15.45       5.21
H       3.61       5.60      19.52
H       5.44       2.01      16.83
H       7.51      11.86       7.90
H       3.17      17.69       7.90
H       1.10       7.84      16.83
H       6.08      19.60      17.97
H       6.88       9.75       6.76
H       2.53       0.10       6.76
H       1.73       9.95      17.97
H       7.22       8.25      17.05
H       5.73      18.09       7.68
H       1.39      11.45       7.68
H       2.88       1.60      17.05
H       6.08       9.87      15.55
H       6.88       0.02       9.17
H       2.53       9.83       9.17
H       1.73      19.67      15.55
H       3.43       7.00      14.18
H       0.83      16.85      10.54
H       5.18      12.70      10.54
H       7.78       2.85      14.18
H       4.47       5.23      15.59
H       8.49      15.08       9.14
H       4.14      14.46       9.14
H       0.12       4.61      15.59
H       0.03      17.82      22.06
H       4.24       7.98       2.67
H       8.58       1.87       2.67
H       4.38      11.72      22.06
H       8.19      17.89      24.46
H       4.77       8.05       0.27
H       0.42       1.80       0.27
H       3.85      11.65      24.46
H       5.25       1.27      23.75
H       7.70      11.12       0.98
H       3.36      18.42       0.98
H       0.91       8.57      23.75
H       5.75       1.17      21.33
H       7.20      11.02       3.39
H       2.86      18.53       3.39
H       1.41       8.68      21.33
H       6.00      17.93       3.08
H       6.96       8.08      21.65
H       2.61       1.76      21.65
H       1.65      11.61       3.08
H       5.57      17.66       5.50
H       7.39       7.81      19.23
H       3.05       2.03      19.23
H       1.22      11.88       5.50
H       4.91       2.02       6.01
H       8.04      11.87      18.72
H       3.70      17.67      18.72
H       0.57       7.83       6.01
H       5.24       2.46       3.55
H       7.71      12.31      21.17
H       3.37      17.23      21.17
H       0.90       7.39       3.55
H       1.94      15.19      17.03
H       2.33       5.35       7.70
H       6.67       4.50       7.70
H       6.28      14.35      17.03
H       5.12       4.31      17.25
H       7.83      14.16       7.48
H       3.49      15.39       7.48
H       0.78       5.54      17.25
H       6.97      18.72       1.46
H       5.99       8.87      23.27
H       1.64       0.97      23.27
H       2.63      10.82       1.46
C       8.04      18.25      19.43
C       4.91       8.41       5.30
C       0.57       1.44       5.30
C       3.70      11.29      19.43
C       0.26      18.45      18.37
C       4.01       8.60       6.36
C       8.36       1.25       6.36
C       4.60      11.10      18.37
C       0.74      17.36      17.65
C       3.53       7.52       7.08
C       7.87       2.33       7.08
C       5.08      12.18      17.65
C       0.33      16.06      17.97
C       3.94       6.21       6.76
C       8.28       3.64       6.76
C       4.68      13.48      17.97
C       8.10      15.86      19.01
C       4.86       6.01       5.72
C       0.51       3.84       5.72
C       3.76      13.68      19.01
C       7.61      16.95      19.72
C       5.34       7.10       5.00
C       1.00       2.75       5.00
C       3.27      12.59      19.72
C       0.37      13.86      16.82
C       3.90       4.02       7.90
C       8.24       5.83       7.90
C       4.71      15.68      16.83
C       1.21      12.97      15.97
C       3.06       3.13       8.75
C       7.40       6.72       8.75
C       5.55      16.57      15.97
C       2.38      13.40      15.32
C       1.89       3.55       9.40
C       6.24       6.30       9.40
C       6.72      16.14      15.32
C       3.10      12.50      14.56
C       1.17       2.65      10.17
C       5.51       7.20      10.17
C       7.44      17.05      14.56
C       1.56      10.82      14.96
C       2.71       0.97       9.77
C       7.05       8.88       9.77
C       5.90      18.73      14.96
C       0.79      11.65      15.76
C       3.48       1.81       8.97
C       7.82       8.04       8.97
C       5.13      17.89      15.76
C       7.34       0.88      19.42
C       5.61      10.73       5.31
C       1.27      18.81       5.31
C       3.00       8.96      19.42
C       7.88       2.11      19.83
C       5.07      11.96       4.90
C       0.73      17.59       4.90
C       3.54       7.74      19.83
C       7.54       3.30      19.18
C       5.41      13.15       5.54
C       1.07      16.40       5.54
C       3.20       6.55      19.18
C       6.64       3.26      18.11
C       6.31      13.11       6.62
C       1.97      16.43       6.62
C       2.30       6.59      18.11
C       6.14       2.03      17.66
C       6.81      11.88       7.06
C       2.47      17.67       7.06
C       1.80       7.82      17.66
C       6.49       0.85      18.30
C       6.46      10.70       6.42
C       2.12      18.85       6.42
C       2.15       9.00      18.30
C       6.70       5.61      17.30
C       6.26      15.46       7.43
C       1.91      14.08       7.43
C       2.36       4.24      17.30
C       5.94       6.59      16.47
C       7.02      16.44       8.26
C       2.67      13.10       8.26
C       1.59       3.26      16.47
C       6.38       7.92      16.44
C       6.57      17.77       8.29
C       2.23      11.78       8.29
C       2.04       1.93      16.44
C       5.74       8.83      15.62
C       7.22      18.68       9.10
C       2.87      10.86       9.10
C       1.40       1.01      15.62
C       4.26       7.23      14.85
C       0.00      17.07       9.87
C       4.35      12.47       9.87
C       8.61       2.62      14.86
C       4.85       6.25      15.65
C       8.10      16.10       9.08
C       3.76      13.44       9.08
C       0.51       3.60      15.65
C       7.28      19.36      21.51
C       5.67       9.51       3.21
C       1.33       0.34       3.21
C       2.94      10.19      21.51
C       7.95      18.51      22.42
C       5.00       8.66       2.31
C       0.66       1.19       2.31
C       3.61      11.03      22.42
C       7.65      18.55      23.77
C       5.31       8.70       0.95
C       0.97       1.15       0.95
C       3.30      11.00      23.77
C       6.68      19.44      24.27
C       6.27       9.59       0.45
C       1.93       0.26       0.45
C       2.34      10.10      24.27
C       6.00       0.58      23.37
C       6.95      10.43       1.35
C       2.61      19.11       1.35
C       1.66       9.26      23.37
C       6.30       0.53      22.02
C       6.66      10.38       2.71
C       2.31      19.17       2.71
C       1.96       9.32      22.02
C       5.84       0.71       1.66
C       7.11      10.55      23.07
C       2.77      18.99      23.07
C       1.50       9.14       1.66
C       5.69       0.40       3.12
C       7.27      10.25      21.61
C       2.93      19.29      21.61
C       1.34       9.45       3.12
C       5.79      18.82       3.68
C       7.17       8.97      21.05
C       2.82       0.88      21.05
C       1.44      10.73       3.68
C       5.54      18.66       5.04
C       7.42       8.81      19.68
C       3.07       1.04      19.68
C       1.19      10.89       5.04
C       5.15       1.20       5.32
C       7.81      11.05      19.40
C       3.47      18.49      19.40
C       0.80       8.64       5.32
C       5.35       1.46       3.97
C       7.61      11.31      20.76
C       3.26      18.24      20.76
C       1.01       8.39       3.97
I       6.17      11.21      12.87
I       6.78       1.36      11.86
I       2.44       8.49      11.86
I       1.83      18.33      12.87
N       7.60      19.38      20.14
N       5.36       9.54       4.58
N       1.02       0.31       4.58
N       3.25      10.16      20.14
N       0.94      15.01      17.24
N       3.33       5.17       7.49
N       7.67       4.68       7.49
N       5.29      14.53      17.24
N       2.72      11.21      14.39
N       1.55       1.37      10.34
N       5.89       8.48      10.34
N       7.06      18.33      14.39
N       6.12       4.40      17.47
N       6.83      14.25       7.26
N       2.49      15.29       7.26
N       1.78       5.44      17.47
N       4.70       8.50      14.82
N       8.26      18.35       9.90
N       3.91      11.19       9.90
N       0.36       1.34      14.83
N       6.49      19.44       0.92
N       6.46       9.59      23.80
N       2.12       0.26      23.80
N       2.15      10.10       0.92
N       5.23      19.67       5.86
N       7.73       9.82      18.86
N       3.38       0.02      18.86
N       0.88       9.87       5.86
O       7.88      13.54      17.10
O       5.08       3.69       7.63
O       0.74       6.16       7.63
O       3.53      16.01      17.10
O       7.82       5.92      17.76
O       5.13      15.76       6.97
O       0.79      13.78       6.97
O       3.48       3.93      17.76
O       5.39       1.75       1.18
O       7.57      11.60      23.55
O       3.22      17.94      23.55
O       1.04       8.09       1.18
