224

Al       5.65      14.60      12.47
Al       2.35      14.70      12.50
Al       1.75      29.21      24.94
Al       5.05       0.09       0.03
H       2.51       5.18       3.84
H       5.82      24.12      21.13
H       4.93       4.69       4.75
H       1.63      24.61      20.22
H       4.83       2.81       3.12
H       1.52      26.49      21.85
H       5.40       7.18       4.58
H       2.10      22.12      20.39
H       5.52       9.09       6.11
H       2.21      20.21      18.86
H       2.34       7.28       8.04
H       5.64      22.02      16.93
H       2.75       9.21       8.75
H       6.05      20.09      16.22
H       5.34      12.05       9.31
H       2.04      17.25      15.66
H       5.23      10.11       7.81
H       1.92      19.19      17.16
H       0.72       8.79      16.53
H       4.02      20.51       8.44
H       0.56       7.45      18.42
H       3.87      21.85       6.54
H       5.00       9.97      20.04
H       1.69      19.33       4.93
H       5.03       8.59      18.96
H       1.73      20.71       6.00
H       5.17      10.04      17.14
H       1.86      19.26       7.83
H       5.24      11.43      18.22
H       1.94      17.87       6.75
H       0.60      10.95      20.91
H       3.90      18.35       4.06
H       2.36      11.44      18.60
H       5.67      17.86       6.37
H       0.88      12.31      19.02
H       4.19      16.99       5.95
H       4.18       3.96       0.92
H       3.20       5.26       1.65
H       2.27       8.52      24.40
H       1.27       4.63       0.15
H       2.91      11.54      24.27
H       2.25      10.55      22.94
H       3.89      10.24      23.54
H       0.87      25.34      24.05
H       6.51      24.04      23.32
H       5.57      20.78       0.57
H       4.58      24.67      24.81
H       6.21      17.76       0.70
H       5.56      18.75       2.02
H       0.59      19.06       1.42
H       4.63      10.46      11.46
H       3.55       9.19      10.83
H       2.82      11.21      13.04
H       1.76       9.93      12.43
H       3.41       8.18      13.27
H       2.86       9.24      14.58
H       4.46       9.49      13.87
H       1.33      18.84      13.50
H       0.25      20.11      14.13
H       6.13      18.09      11.93
H       5.06      19.37      12.54
H       0.11      21.12      11.70
H       6.16      20.06      10.39
H       1.16      19.81      11.10
H       2.12      10.14      20.52
H       5.43      19.16       4.44
H       3.94       6.69      19.00
H       2.74       6.53      17.70
H       2.33       5.77      20.65
H       1.10       5.61      19.40
H       2.69       4.07      18.09
H       2.19      27.54      19.65
H       3.80       4.12      19.48
H       0.64      22.61       5.97
H       6.04      22.76       7.27
H       5.64      23.53       4.32
H       4.40      23.69       5.57
H       6.00      25.23       6.88
H       5.50       1.76       5.32
H       0.50      25.18       5.49
H       2.28       9.40      17.13
H       5.58      19.90       7.84
H       1.06       3.72       6.64
H       1.88       4.19       8.16
H       3.11       2.70       5.77
H       4.07       3.35       7.11
H       2.82       1.89       8.74
H       3.53      25.03       7.45
H       1.80      25.39       7.42
H       4.36      25.58      18.33
H       5.17      25.11      16.81
H       6.41      26.60      19.20
H       0.76      25.96      17.86
H       6.11      27.42      16.23
H       0.22       4.28      17.52
H       5.09       3.91      17.54
H       3.92      13.09      11.79
H       0.61      16.21      13.18
H       3.27       1.54       0.72
H       6.57      27.76      24.25
C       3.43      22.59       1.89
C       0.13       6.71      23.08
C       4.02      16.21      10.62
C       0.72      13.09      14.35
C       4.04      16.38      14.18
C       0.73      12.92      10.79
C       1.51       3.61       2.76
C       4.81      25.68      22.20
C       1.57       4.67       3.68
C       4.87      24.63      21.28
C       0.44       5.06       4.41
C       3.74      24.24      20.56
C       5.82       4.40       4.18
C       2.52      24.90      20.79
C       5.76       3.34       3.29
C       2.46      25.96      21.68
C       0.29       2.91       2.58
C       3.60      26.39      22.38
C       6.18       7.20       5.35
C       2.87      22.10      19.62
C       6.24       8.28       6.22
C       2.94      21.02      18.75
C       0.63       8.35       7.21
C       3.93      20.95      17.76
C       1.56       7.30       7.27
C       4.86      22.00      17.69
C       1.51       6.23       6.38
C       4.82      23.07      18.59
C       0.51       6.16       5.39
C       3.81      23.14      19.58
C       1.84       9.81       8.87
C       5.15      19.49      16.10
C       1.91      10.91       9.73
C       5.21      18.39      15.23
C       0.78      11.75       9.88
C       4.08      17.55      15.09
C       6.22      11.43       9.17
C       2.92      17.88      15.80
C       6.16      10.33       8.32
C       2.86      18.97      16.64
C       0.68       9.50       8.15
C       3.99      19.80      16.82
C       1.13       8.37      18.65
C       4.43      20.93       6.32
C       5.57       9.50      19.23
C       2.27      19.80       5.74
C       5.69      10.45      18.01
C       2.39      18.85       6.96
C       0.72      12.22      15.50
C       4.02      17.08       9.47
C       0.36       9.13      19.77
C       3.67      20.17       5.20
C       1.22       9.26      17.39
C       4.52      20.04       7.58
C       0.58      10.65      17.65
C       3.88      18.65       7.32
C       1.30      11.30      18.86
C       4.61      18.00       6.11
C       1.15      10.42      20.11
C       4.45      18.88       4.85
C       0.69      11.49      16.48
C       3.99      17.81       8.49
C       0.25       8.28      20.94
C       3.55      21.02       4.03
C       0.16       7.57      21.92
C       3.47      21.73       3.05
C       3.47      27.56      23.29
C       0.16       1.74       1.68
C       3.15       4.28       1.15
C       2.31       9.52      24.85
C       2.87      10.52      23.85
C       6.45      25.02      23.82
C       5.61      19.78       0.12
C       6.18      18.78       1.12
C       3.58      10.18      11.31
C       2.81      10.19      12.62
C       3.42       9.22      13.64
C       0.28      19.12      13.66
C       6.12      19.11      12.34
C       0.12      20.08      11.33
C       2.86       6.70      18.79
C       2.19       5.59      19.58
C       2.74       4.22      19.18
C       6.17      22.60       6.18
C       5.49      23.71       5.39
C       6.05      25.08       5.79
C       2.03       4.02       7.08
C       3.08       2.94       6.84
C       2.79       1.68       7.66
C       5.33      25.29      17.89
C       6.37      26.36      18.12
C       6.08      27.62      17.31
O       2.88      15.98      13.81
O       6.18      13.32      11.15
O       5.16      15.83      11.04
O       1.85      13.47      13.92
O       5.13      15.84      13.81
O       1.82      13.46      11.15
O       6.18      13.37      13.87
O       2.88      15.93      11.10
O       1.22       1.15       1.32
O       4.53      28.15      23.65
O       3.98      13.82      12.43
O       0.68      15.48      12.53
O       2.29      22.82       1.37
O       5.59       6.48      23.59
O       3.37       0.83       0.05
O       0.07      28.47      24.92
O       4.56      23.01       1.48
O       1.26       6.29      23.49
O       2.29      27.91      23.65
O       5.59       1.39       1.32
O       2.65       3.28       2.07
O       5.95      26.02      22.90
O       3.08      11.19      10.39
O       6.38      18.11      14.57
O       2.43       8.02      19.13
O       5.73      21.28       5.83
O       2.49       5.25       6.48
O       5.79      24.05      18.49
