86

Zn       5.99       9.77       8.52
Zn       6.00       6.99       8.37
H      10.26      10.23       7.40
H      10.12       8.79       6.39
H       4.77       6.31       4.59
H       8.08      11.90       8.34
H       8.15      14.44       8.27
H       7.67       2.42       6.72
H       7.53       4.95       6.83
H       3.99      11.88       8.89
H       4.43       2.27       9.56
H       3.89      14.43       8.90
H       4.46       4.80       9.59
H       1.73       6.51       9.40
H       1.58       8.56       6.29
H       1.71      10.13       7.09
H      10.22      10.04       9.94
H       1.66      10.24       9.61
H      10.26       6.36       9.26
H      10.31       6.50       7.51
H       1.78       6.42       7.64
H       3.85      12.05      11.80
H       5.48      11.34      12.06
H       4.43      11.74      13.47
H      10.41       8.45      10.68
H       1.95       5.03       1.76
H       2.96       5.68       0.41
H       2.01       6.80       1.44
H       1.86       8.79      10.58
H       3.64       9.87      14.95
H       4.78      10.33       1.69
H       5.57      10.50       4.08
H       6.07       6.14      12.73
H       5.64       6.08      15.21
C       5.83       8.42       5.85
C       5.23       9.56       3.66
C       4.19       9.07      14.46
C       8.59       8.41       8.57
C       4.42       9.09      13.09
C       4.67       7.99      15.23
C       5.15       8.06      12.46
C       5.55       6.96      13.23
C       5.31       6.91      14.60
C       5.13       4.22       8.96
C       5.12       2.84       8.95
C       1.86       8.43       8.43
C       6.05       2.17       8.13
C       6.94       2.92       7.36
C       6.87       4.31       7.42
C       5.55       8.11      11.02
C       7.22      13.90       8.41
C       7.18      12.52       8.45
C       6.01      14.60       8.56
C       4.87      12.50       8.77
C       4.82      13.89       8.77
C       3.38       8.49       8.36
C       1.36       9.19       9.68
C      10.60       9.19       7.30
C       1.27       9.12       7.18
C      10.69       9.06       9.80
C      10.67       6.96       8.44
C      10.12       8.39       8.53
C       4.45      11.37      12.43
C       2.59       5.86       1.43
C       1.35       6.98       8.48
C       5.29       8.39       4.45
C       4.79       7.19       3.95
C       4.25       7.10       2.66
C       4.35       8.24       1.80
C       4.76       9.47       2.36
N       4.26       8.27       0.40
N       4.60       7.91      16.64
N       5.99       4.94       8.21
N       6.18       0.76       8.06
N       5.89      16.01       8.57
N       6.03      11.83       8.61
O       5.86       9.55       6.44
O       3.67       5.91       2.36
O       6.20       7.31       6.34
O       8.02       9.55       8.50
O       7.98       7.29       8.66
O       5.89       9.24      10.54
O       5.55       7.00      10.39
O       3.93       9.62       8.55
O       4.00       7.41       8.11
O       3.84      10.08      12.32
