324

Zn       2.02       7.37      27.52
Zn       9.26      17.33      18.44
Zn      19.70      14.54       3.12
Zn      12.46       4.57      12.20
Zn      16.38      15.43      16.95
Zn       9.14       9.26      29.02
Zn       5.34       6.47      13.70
Zn      12.58      12.64       1.63
Zn       5.05      10.46      21.80
Zn      12.29      14.23      24.16
Zn      16.67      11.44       8.84
Zn       9.43       7.67       6.48
H      17.11      13.78      19.30
H       9.86      10.91      26.66
H       4.62       8.12      11.34
H      11.86      10.99       3.98
H      16.00      12.28      20.96
H       8.76      12.41      25.01
H       5.72       9.62       9.68
H      12.97       9.49       5.63
H      12.20      13.37      19.18
H       4.96      11.32      26.78
H       9.52       8.53      11.46
H      16.76      10.58       3.86
H      13.46      14.79      17.57
H       6.22       9.90      28.39
H       8.26       7.11      13.07
H      15.50      12.00       2.25
H       9.66      12.07      20.12
H      16.91      12.62      25.84
H      12.06       9.83      10.52
H       4.82       9.28       4.80
H       7.14      11.89      20.16
H      14.39      12.81      25.80
H      14.58      10.02      10.48
H       7.34       9.09       4.84
H       7.25       9.29      23.38
H      14.49      15.40      22.58
H      14.47      12.61       7.26
H       7.23       6.50       8.06
H       9.77       9.35      23.47
H      17.01      15.35      22.50
H      11.95      12.55       7.18
H       4.71       6.56       8.14
H      12.25       9.05      25.04
H      19.50      15.65      20.92
H       9.47      12.86       5.60
H       2.23       6.25       9.72
H      13.52       7.91      26.85
H       6.28      16.78      19.11
H       8.20      13.99       3.79
H      15.44       5.12      11.53
H       2.68       9.16      25.27
H       9.92      15.53      20.69
H      19.04      12.74       5.37
H      11.80       6.37       9.95
H      16.04      10.32      23.38
H       8.80      14.37      22.58
H       5.68      11.58       7.26
H      12.92       7.53       8.06
H      15.69       8.99      29.89
H       8.45      15.71      16.07
H       6.03      12.91       0.75
H      13.27       6.20      14.57
H      13.71       3.56       0.80
H       6.46      15.55      14.52
H       8.02      18.34      29.84
H      15.26       6.35      16.12
H      12.24       5.49      29.70
H      19.48      19.21      16.26
H       9.48      16.42       0.94
H       2.24       2.70      14.38
H      14.31       5.46      28.24
H      21.55      19.23      17.72
H       7.41      16.44       2.40
H       0.17       2.67      12.92
H       7.42       0.76       3.14
H      14.66      18.35      12.18
H      14.30      21.14      27.50
H       7.06       3.56      18.46
H      12.91      15.25       3.00
H       5.67       3.86      12.32
H       8.81       6.65      27.64
H      16.05      18.04      18.32
H      14.90      18.99      30.52
H       7.66       5.71      15.44
H       6.83       2.91       0.12
H      14.06      16.20      15.20
H      16.75      20.72      30.56
H       9.51       3.98      15.40
H       4.97       1.19       0.08
H      12.21      17.93      15.24
H      11.33       5.40       2.26
H      18.57      13.71      13.06
H      10.39      16.50      28.38
H       3.15       8.20      17.58
H      10.88       7.30       3.88
H      18.12      11.81      11.44
H      10.84      14.60      26.76
H       3.60      10.09      19.20
H       8.95       4.76       6.52
H      16.19      14.35       8.80
H      12.77      17.15      24.12
H       5.53       7.55      21.84
H       9.23       2.79       4.96
H      16.47      16.32      10.36
H      12.49      19.12      25.68
H       5.25       5.58      20.28
C      16.02      13.65      19.30
C       8.78      11.04      26.66
C       5.70       8.25      11.34
C      12.94      10.86       3.98
C      15.40      12.82      20.22
C       8.16      11.88      25.74
C       6.32       9.08      10.42
C      13.57      10.03       4.90
C      14.00      12.69      20.18
C       6.76      12.01      25.78
C       7.72       9.21      10.46
C      14.96       9.90       4.86
C      13.29      13.41      19.22
C       6.05      11.28      26.74
C       8.43       8.49      11.42
C      15.67      10.62       3.90
C      13.99      14.22      18.33
C       6.75      10.48      27.63
C       7.73       7.69      12.31
C      14.97      11.42       3.01
C      13.30      11.81      21.14
C       6.05      12.89      24.82
C       8.43      10.09       9.50
C      15.67       9.01       5.82
C      11.38      10.83      21.85
C      18.62      13.87      24.11
C      10.34      11.07       8.79
C       3.10       8.04       6.53
C      13.32      10.41      22.93
C       6.08      14.28      23.03
C       8.40      11.49       7.71
C      15.64       7.62       7.61
C       9.90      10.71      21.79
C      17.14      13.99      24.18
C      11.82      11.19       8.86
C       4.58       7.91       6.46
C       9.16      11.43      20.84
C      16.40      13.27      25.12
C      12.56      10.47       9.80
C       5.32       8.64       5.52
C       7.77      11.33      20.86
C      15.02      13.37      25.10
C      13.95      10.57       9.78
C       6.71       8.53       5.54
C       7.84       9.87      22.66
C      15.08      14.83      23.30
C      13.89      12.04       7.98
C       6.65       7.07       7.34
C       9.22       9.91      22.71
C      16.46      14.79      23.25
C      12.50      11.99       7.93
C       5.26       7.11       7.39
C      14.05       9.75      24.04
C       6.81      14.94      21.92
C       7.67      12.15       6.60
C      14.91       6.96       8.72
C      13.34       9.07      25.04
C       6.10      15.62      20.92
C       8.38      12.83       5.60
C      15.62       6.28       9.72
C      14.05       8.44      26.06
C       6.81      16.25      19.90
C       7.67      13.46       4.58
C      14.91       5.65      10.74
C      16.08       9.15      25.18
C       8.84      15.55      20.78
C       5.64      12.75       5.46
C      12.88       6.36       9.86
C      15.45       9.80      24.13
C       8.21      14.90      21.83
C       6.27      12.11       6.51
C      13.52       7.01       8.81
C      14.90       8.24      29.89
C       7.66      16.46      16.07
C       6.82      13.67       0.75
C      14.06       5.44      14.57
C      13.81       2.73       0.10
C       6.57      16.38      15.22
C       7.91      19.17      30.54
C      15.15       5.52      15.43
C      12.83       1.74       0.04
C      20.06      17.37      15.29
C       8.90      20.16      30.61
C       1.66       4.54      15.36
C      13.00       6.27      29.77
C      20.24      18.42      16.19
C       8.73      15.63       0.87
C       1.49       3.48      14.45
C      14.12       6.26      28.96
C       6.88      18.44      17.00
C       7.60      15.65       1.68
C      14.84       3.46      13.64
C      11.62       1.82       0.90
C      18.86      17.29      14.43
C      10.10      20.08      29.75
C       2.86       4.61      16.22
C      10.46       2.85       2.54
C      17.70      16.26      12.78
C      11.26      19.06      28.10
C       4.02       5.64      17.86
C       9.66       0.95       1.61
C      16.90      18.16      13.71
C      12.06      20.96      29.03
C       4.82       3.74      16.94
C      15.84      16.23       1.54
C       8.60       2.88      13.78
C       5.88       5.67      29.10
C      13.13      19.03      16.86
C      14.74      16.28       2.41
C       7.50       2.83      12.91
C       6.98       5.63      28.23
C      14.22      19.07      17.73
C      13.79      15.28       2.34
C       6.54       3.83      12.98
C       7.94       6.63      28.30
C      15.18      18.07      17.66
C      14.90      14.24       0.59
C       7.66       4.87      14.73
C       6.82       7.66      30.05
C      14.06      17.03      15.91
C      15.91      15.20       0.60
C       8.67       3.92      14.72
C       5.81       6.71      30.04
C      13.06      17.99      15.93
C      10.30       3.96       3.50
C      17.54      15.15      11.82
C      11.42      17.94      27.14
C       4.18       6.75      18.82
C      10.80       5.23       3.20
C      18.04      13.88      12.13
C      10.92      16.67      27.45
C       3.68       8.02      18.52
C      10.56       6.27       4.08
C      17.80      12.84      11.24
C      11.16      15.63      26.56
C       3.93       9.07      19.40
C       9.45       4.85       5.55
C      16.69      14.26       9.77
C      12.27      17.05      25.09
C       5.04       7.65      20.87
C       9.61       3.77       4.70
C      16.85      15.34      10.62
C      12.11      18.13      25.94
C       4.87       6.56      20.02
N      15.33      14.33      18.37
N       8.09      10.36      27.59
N       6.39       7.57      12.27
N      13.63      11.54       3.05
N      11.98      11.64      20.96
N       4.73      13.06      25.00
N       9.75      10.27       9.68
N      16.99       8.84       5.64
N      12.01      10.15      22.82
N       4.77      14.54      23.15
N       9.71      11.75       7.82
N      16.95       7.36       7.50
N      14.01      11.24      22.13
N       6.77      13.45      23.83
N       7.71      10.66       8.51
N      14.95       8.45       6.81
N       7.13      10.56      21.75
N      14.37      14.14      24.21
N      14.60      11.34       8.89
N       7.35       7.77       6.43
N      15.39       8.47      26.13
N       8.15      16.22      19.83
N       6.33      13.43       4.51
N      13.57       5.68      10.81
N      15.05       7.23      29.01
N       7.81      17.46      16.95
N       6.67      14.67       1.63
N      13.91       4.44      13.69
N      11.54       2.85       1.75
N      18.78      16.26      13.57
N      10.18      19.05      28.89
N       2.94       5.65      17.07
N       9.51       1.91       2.54
N      16.75      17.20      12.78
N      12.21      20.00      28.10
N       4.97       4.70      17.86
N      10.69       0.86       0.76
N      17.93      18.25      14.56
N      11.03      21.04      29.88
N       3.79       3.65      16.08
N      13.87      14.27       1.45
N       6.63       4.84      13.87
N       7.85       7.63      29.19
N      15.10      17.06      16.77
N       9.89       6.09       5.24
N      17.13      13.02      10.08
N      11.83      15.82      25.41
N       4.59       8.88      20.56
Cl       3.62       8.72      28.27
Cl      10.86      15.97      17.69
Cl      18.11      13.18       2.37
Cl      10.86       5.93      12.95
Cl       2.25       5.34      26.66
Cl       9.49      19.35      19.31
Cl      19.48      16.56       3.99
Cl      12.23       2.55      11.34
Cl      16.22      14.34      15.03
Cl       8.98       4.77       0.29
Cl       5.50       7.57      15.61
Cl      12.74      17.13      30.35
Cl      18.20      16.16      18.00
Cl      10.96       8.54      27.96
Cl       3.52       5.75      12.64
Cl      10.76      13.36       2.68
Cl       4.66       9.77      23.87
Cl      11.90      14.92      22.10
Cl      17.06      12.13       6.77
Cl       9.82       6.98       8.55
Cl       4.33      12.29      20.78
Cl      11.57      12.41      25.19
Cl      17.39       9.61       9.86
Cl      10.15       9.50       5.46
