93

Zn       7.72      10.00       8.39
Zn       9.91       7.69       8.40
Zn       7.57       7.67      10.59
Zn       9.88       9.83      10.80
H      16.61       7.92       7.88
H       9.25      10.41      17.45
H       8.50       0.94      11.41
H       9.52      10.47      14.94
H       9.79       7.01       4.30
H       7.12       6.70      17.13
H       9.99       7.09       1.79
H       7.33       6.79      14.63
H       8.94      16.44      12.10
H       8.95       3.67       7.28
H       8.76      16.59       7.82
H       1.11      10.01       7.33
H       8.74      14.09       7.74
H      14.10       7.82       7.78
H       8.80       4.60      12.04
H       9.04      14.45      13.30
H       8.89       1.16       7.13
H       3.63      10.06       7.48
H      13.88       9.34      11.80
H       0.94       7.70      10.95
H      16.40       9.33      11.93
H       3.46       7.69      11.06
H       8.25      11.03       4.30
H       8.56      11.14       1.80
C      12.36       8.60       9.71
C       8.82       1.67       8.09
C       3.68       8.88       9.28
C       5.17       8.86       9.34
C       2.93       8.21      10.26
C       1.54       8.21      10.20
C       0.90       8.87       9.14
C       1.64       9.51       8.14
C       3.03       9.54       8.22
C      16.00       8.22       8.73
C      14.62       8.17       8.68
C       8.86      16.66       9.97
C      16.64       8.66       9.90
C      13.85       8.59       9.78
C      14.49       9.02      10.95
C       8.92       8.97       5.93
C      15.88       9.02      11.03
C       8.46       8.63      14.65
C       7.76       7.56      15.26
C       7.64       7.51      16.64
C       8.19       8.54      17.42
C       8.85       9.62      16.82
C       8.91      15.91      11.15
C       9.00       9.65      15.43
C       8.82      10.25       2.36
C       8.65      10.18       3.74
C       9.32       9.13       1.67
C       8.59       8.67      13.17
C       9.02       9.02       4.44
C       9.51       7.91       3.74
C       9.63       7.95       2.36
C       8.70       5.19       9.44
C       8.85      12.36       9.75
C       8.87      14.52      11.12
C       8.82      13.85       9.88
C       8.79      14.61       8.70
C       8.80      16.00       8.73
C       8.49       3.53      11.95
C       8.74      13.82      12.43
C       8.59       1.53      10.50
C       8.57       2.92      10.59
C       8.72       0.90       9.26
C       8.72       3.70       9.42
C       8.84       3.06       8.17
N       8.86      18.06      10.14
N       8.74      -0.50       9.07
N      -0.51       8.89       8.98
N      18.04       8.73      10.06
N       8.09       8.58      18.83
N       9.50       9.10       0.27
O       8.77       8.80       9.54
O       9.55       5.77       8.68
O       9.80      11.74      10.32
O       7.83       5.75      10.18
O       7.94      11.86       9.00
O       8.14       2.90      12.94
O       8.29      12.70      12.59
O       8.28       9.91       6.51
O       9.36       9.55      12.67
O      11.82       8.02       8.71
O       5.70       8.13      10.25
O      11.75       9.21      10.65
O       5.80       9.58       8.50
O       9.48       7.98       6.51
O       7.91       7.80      12.51
