174

Zn      -0.00      -0.00       1.31
Zn     -10.51      -0.00      28.02
Zn      11.81       1.30       0.00
Zn      22.32      11.81       0.00
Zn      11.81      11.81      26.72
Zn      11.81      22.32       0.00
H       2.22      14.38      14.97
H       9.24       2.22      14.97
H      -2.22       9.24      14.97
H      14.38      -2.22      14.97
H      14.03      -2.57      13.05
H      -2.57       9.59      13.05
H       9.59       2.57      13.05
H       2.57      14.03      13.05
H       2.13      14.41      17.44
H       9.21       2.13      17.45
H      -2.13       9.21      17.44
H      14.41      -2.13      17.44
H      13.94      -2.60      10.58
H      -2.60       9.68      10.58
H       9.68       2.60      10.58
H       2.60      13.94      10.58
C      11.81      -9.23      28.02
C       9.97       1.59      15.48
C      11.21      -1.06      23.22
C      12.87       0.61       4.80
C       0.61      10.75       4.80
C      10.75      -0.61       4.80
C      -0.61      12.87       4.80
C       1.06      11.20      23.22
C      12.42       1.06      23.22
C      -1.06      12.41      23.22
C      -1.59       9.97      15.48
C       0.00      11.81      23.92
C      11.81      -0.00      23.92
C      11.81      -0.00       4.10
C       0.00      11.81       4.10
C      13.65      -1.60      15.48
C       0.00      11.81      21.13
C      11.81      -0.00      21.13
C      11.81      -0.00       6.90
C       0.00      11.81       6.90
C       4.02      23.62       0.00
C      13.41      -1.84      12.54
C      11.81      -7.80      28.02
C       7.79     -11.81      28.02
C       0.00      19.60       0.00
C       5.24      23.62       0.00
C      11.81      -6.57      28.02
C       6.57     -11.81      28.02
C      -1.84      10.21      12.54
C       0.00      18.38       0.00
C      -5.22      11.81      28.02
C      23.62       6.59       0.00
C       5.23     -11.81      28.02
C       0.00      17.03       0.00
C      10.22       1.84      12.54
C      -4.00      11.81      28.02
C       0.00       7.81       0.00
C       4.00     -11.81      28.02
C       0.00      15.81       0.00
C       1.84      13.40      12.54
C       0.00      11.81      25.44
C      11.81      -0.00      25.44
C      11.81       0.00       2.59
C       0.00      11.81       2.59
C       9.25      23.62       0.00
C       1.60      13.65      15.48
C      11.81      -2.57      28.02
C      14.37       0.00       0.00
C     -11.81       2.56      28.02
C       0.85      12.72      14.74
C      10.90       0.85      14.74
C      -0.85      10.89      14.74
C      12.72      -0.85      14.74
C      12.66      -0.91      13.28
C      -0.91      10.96      13.28
C      10.96       0.91      13.28
C       0.92      12.66      13.28
C       0.00      11.81      15.44
C      11.81      -0.00      15.44
C      11.81      -0.00      12.58
C       0.00      11.81      12.58
C       9.23      11.81      28.02
C       1.56      13.67      16.88
C       9.95       1.55      16.88
C      -1.55       9.94      16.88
C      13.68      -1.56      16.88
C      13.37      -1.87      11.15
C       0.00      21.04       0.00
C      -1.86      10.25      11.15
C      10.26       1.87      11.15
C       1.87      13.36      11.15
C       2.58      -0.00       0.00
C       0.78      12.76      17.58
C      10.86       0.78      17.58
C      -0.78      10.86      17.58
C      12.76      -0.78      17.58
C      12.59      -0.95      10.45
C      -0.95      11.03      10.45
C      11.03       0.95      10.45
C       0.95      12.59      10.45
C       0.00      11.81      16.87
C      11.81      -0.00      16.87
C      11.81      -0.00      11.15
C       0.00      11.81      11.15
C       0.77      12.80      19.05
C      10.82       0.77      19.05
C      -0.77      10.81      19.05
C      12.81      -0.77      19.05
C      12.58      -1.00       8.97
C      -0.99      11.04       8.97
C      11.04       0.99       8.97
C       1.00      12.58       8.97
C       1.04      11.17      21.82
C      12.45       1.04      21.82
C      -1.04      12.45      21.82
C      11.17      -1.04      21.82
C      12.85       0.64       6.20
C       0.64      10.77       6.20
C      10.77      -0.64       6.21
C      -0.64      12.85       6.21
I       2.51      10.16      20.71
I      13.46       2.50      20.71
I      -2.50      13.45      20.71
I      10.16      -2.51      20.71
I      14.32       1.65       7.31
I       1.65       9.30       7.31
I       9.30      -1.65       7.31
I      -1.64      14.32       7.31
I       2.68      10.42      24.30
I      13.20       2.68      24.30
I      -2.68      13.20      24.30
I      10.42      -2.68      24.30
I      14.49       1.39       3.72
I       1.39       9.13       3.72
I       9.13      -1.39       3.72
I      -1.39      14.49       3.72
N       0.00      11.81      19.69
N      11.81      -0.00      19.69
N      11.81      -0.00       8.33
N       0.00      11.81       8.33
O      -0.03       2.01       1.14
O      21.60      -0.03       1.14
O       0.04      21.60       1.15
O       2.01       0.03       1.15
O      11.78       9.79      26.88
O       9.80      11.84      26.88
O      11.84      -9.80      26.88
O      -9.79      11.77      26.88
O      -0.23      10.69      26.01
O     -10.69      -0.24      26.01
O       0.24     -10.70      26.01
O      10.70       0.23      26.01
O      11.58       1.12       2.02
O       1.11      12.04       2.01
O      12.05      22.51       2.01
O      22.51      11.58       2.01
O       9.81      22.49       0.17
O       1.13       9.81       0.17
O      13.81       1.13       0.17
O      22.49      13.81       0.17
O      -2.00     -10.68      27.85
O     -10.67       2.00      27.85
O       2.00      10.67      27.85
O      10.68      -2.00      27.85
O       1.39      13.64      19.72
O       9.98       1.38      19.72
O      -1.38       9.98      19.72
O      13.64      -1.39      19.72
O      13.20      -1.83       8.31
O      -1.83      10.42       8.31
O      10.43       1.83       8.31
O       1.83      13.19       8.31
