92

Al       0.05      35.78      12.40
Al       0.05      21.47       4.13
H       1.89      19.13       7.63
H       1.94      16.96       8.81
H       2.02      14.93       5.00
H       2.02      13.69      11.53
H       1.94      11.67       7.72
H       1.89       9.50       8.90
H       2.02      13.62       6.89
H       2.02      15.01       9.64
H       1.89      25.67       4.41
H       1.94      27.78       5.70
H       2.02      25.49       9.36
H       2.02      31.77       7.17
H       1.94      29.48      10.83
H       1.89      31.58      12.12
H       2.02      27.78       9.55
H       2.02      29.47       6.98
H       1.89      19.61       0.36
H       1.94      33.99      22.68
H       2.02      38.30      22.83
H       2.02      33.26      18.49
H       1.94      37.58      18.64
H       1.89      37.64      16.17
H       2.02      37.32      20.74
H       2.02      34.25      20.57
C       2.05      35.63      14.44
C       2.05       9.00      11.50
C       2.05      34.09      11.25
C       2.05      19.63       5.03
C       2.05      23.17       5.28
C       2.05      21.62       2.09
C       2.01      18.28       5.66
C       1.95      18.20       7.06
C       1.97      16.98       7.72
C       2.01      15.77       6.99
C       2.03      15.85       5.59
C       2.04      17.08       4.93
C       2.02      14.45       7.60
C       2.02      14.18       8.93
C       2.03      12.78      10.94
C       2.01      12.86       9.54
C       1.97      11.65       8.81
C       1.95      10.43       9.46
C       2.01      10.35      10.87
C       2.04      11.55      11.59
C       2.01      24.39       6.13
C       1.95      25.64       5.50
C       1.97      26.82       6.23
C       2.01      26.79       7.64
C       2.03      25.54       8.27
C       2.04      24.36       7.53
C       2.02      27.98       8.48
C       2.02      29.27       8.05
C       2.03      31.71       8.25
C       2.01      30.46       8.89
C       1.97      30.43      10.30
C       1.95      31.61      11.03
C       2.01      32.86      10.39
C       2.04      32.89       8.99
C       2.01      21.74       0.60
C       1.95      34.88      24.62
C       1.97      34.92      23.24
C       2.01      36.16      22.56
C       2.03      37.33      23.33
C       2.04      37.28      24.72
C       2.02      36.29      21.11
C       2.02      35.28      20.21
C       2.03      34.23      17.99
C       2.01      35.41      18.76
C       1.97      36.64      18.08
C       1.95      36.68      16.70
C       2.01      35.51      15.93
C       2.04      34.28      16.60
Br       2.00      17.07       3.03
Br       2.00      11.55      13.50
Br       2.00      22.72       8.49
Br       2.00       5.91       8.04
Br       2.00      24.62       0.87
Br       2.00      32.63      15.65
O       3.01      34.89      11.07
O       3.01      35.08      13.83
O       3.01       8.75      12.29
O       1.12      34.22      12.11
O       1.12       8.18      11.18
O       1.12      36.32      13.89
O       3.01      22.17       2.70
O       3.01      19.88       4.24
O       3.01      22.36       5.46
O       1.12      20.93       2.63
O       1.12      23.04       4.41
O       1.12      20.44       5.35
