171

Co      -0.01      11.76       6.79
Co       3.24       7.84       0.00
Co      -3.25       3.92       6.79
H       2.88      -1.02       5.83
H       4.34       0.63       4.63
H       6.62      -0.09       3.87
H       2.97       7.55       8.21
H       4.41       5.53       8.46
H      -2.86       6.72       5.35
H       5.56       8.83       5.01
H       4.86      12.27       4.73
H       8.49      -1.70       4.32
H       4.48      12.91       3.12
H      -0.37      -2.28      11.57
H       1.09      -4.14      10.73
H       3.37      -4.43      11.73
H       6.21      11.17       2.95
H      -2.08      12.40       4.57
H       0.39       9.11       5.09
H      -0.91       7.77       3.43
H       8.11       5.80       0.59
H       5.24      -3.24      12.91
H       7.73       4.09       0.84
H      -3.62       3.32       9.78
H      -2.15       3.53      11.81
H       0.13       4.55      11.57
H      -0.27       4.80       2.44
H       1.17       5.59       0.55
H       3.63       7.69       3.15
H       2.33       6.92       5.14
H       1.62       5.46       8.26
H       2.00       4.97       9.94
H       1.24       6.54       9.62
H       0.35       8.87       7.76
H      -1.11       7.22       8.96
H      -3.39       7.93       9.71
H       0.26       0.30       5.38
H      -1.18       2.32       5.13
H       6.09       1.13       8.24
H      -2.33      -0.98       8.57
H      -1.63      -4.42       8.85
H      -5.26       9.55       9.27
H      -1.25      -5.06      10.46
H       3.60      10.12       2.02
H       2.14      11.98       2.86
H      -0.14      12.28       1.86
H      -2.98      -3.32      10.64
H       5.31      -4.55       9.02
H       2.84      -1.27       8.50
H       4.14       0.08      10.16
H      -4.88       2.04      13.00
H      -2.02      11.09       0.68
H      -4.50       3.76      12.74
H       6.84       4.53       3.81
H       5.38       4.32       1.78
H       3.10       3.30       2.02
H       3.50       3.05      11.15
H       2.06       2.25      13.03
H      -0.40       0.16      10.44
H       0.90       0.93       8.45
H       1.61       2.38       5.33
H       1.23       2.88       3.64
H       1.99       1.31       3.97
C       3.88      -1.29       5.49
C       4.69      -0.38       4.81
C       5.96      -0.78       4.40
C       6.41      -2.08       4.67
C       5.54      -2.93       5.37
C       2.58      11.40       5.81
C       3.31       9.52       6.39
C       4.14       8.35       6.58
C       3.83       7.40       7.57
C       4.63       6.28       7.70
C       6.00       6.95       5.97
C       5.28       8.11       5.78
C       4.51      13.16       4.20
C       0.63      -2.44      11.96
C       1.45      -3.47      11.52
C       2.71      -3.63      12.07
C       3.16      -2.75      13.06
C       2.29      -1.72      13.44
C       5.83       7.16       0.81
C       6.55       8.61       2.14
C      -2.34       9.36       3.06
C      -2.65      10.69       3.39
C      -1.86      11.37       4.30
C      -0.48       9.54       4.58
C      -1.20       8.79       3.66
C       7.76       4.89       0.09
C      -2.61       3.74       9.72
C      -1.80       3.88      10.84
C      -0.53       4.44      10.71
C      -0.08       4.86       9.45
C      -0.95       4.67       8.36
C      -0.66       4.96       6.97
C       0.07       5.39       5.05
C       0.91       5.81       3.94
C       0.59       5.43       2.63
C       1.39       5.88       1.58
C       2.77       7.03       3.03
C       2.04       6.61       4.14
C       1.27       5.48       9.30
C      -0.65       9.13       8.09
C      -1.47       8.23       8.77
C      -2.73       8.63       9.19
C      -3.18       9.93       8.92
C      -2.31      10.78       8.22
C       0.65      -3.55       7.78
C      -0.08      -1.68       7.20
C      -0.92      -0.51       7.01
C      -0.61       0.44       6.02
C      -1.40       1.57       5.89
C      -2.77       0.90       7.61
C      -2.05      -0.27       7.81
C      -1.28      -5.31       9.39
C       2.60      10.28       1.62
C       1.78      11.32       2.07
C       0.52      11.48       1.52
C       0.07      10.60       0.53
C       0.94       9.57       0.14
C      -2.60       0.68      12.78
C      -3.33      -0.76      11.45
C       5.57      -1.51      10.52
C       5.88      -2.84      10.19
C       5.08      -3.52       9.29
C       3.71      -1.70       9.01
C       4.43      -0.94       9.92
C      -4.54       2.95      13.50
C       5.84       4.11       3.86
C       5.02       3.97       2.74
C       3.76       3.41       2.88
C       3.31       2.99       4.14
C       4.18       3.18       5.23
C       3.89       2.89       6.61
C       3.16       2.46       8.53
C       2.32       2.04       9.64
C       2.63       2.42      10.96
C       1.84       1.97      12.00
C       0.46       0.81      10.56
C       1.19       1.23       9.45
C       1.95       2.36       4.29
N       4.28      -2.54       5.77
N       1.61      10.81       6.57
N       2.08       9.61       6.96
N       3.65      10.61       5.66
N       5.69       6.03       6.91
N       1.03      -1.57      12.91
N       4.86       8.12       0.94
N       5.32       9.05       1.78
N       6.90       7.43       1.56
N      -0.79      10.81       4.91
N      -2.21       4.13       8.50
N      -1.63       4.60       6.08
N      -1.16       4.86       4.85
N       0.42       5.48       6.36
N       2.45       6.69       1.76
N      -1.05      10.39       7.82
N       1.62      -2.96       7.02
N       1.15      -1.77       6.63
N      -0.42      -2.76       7.93
N      -2.46       1.82       6.68
N       2.19       9.42       0.68
N      -1.63      -0.27      12.65
N      -2.10      -1.21      11.81
N      -3.67       0.42      12.02
N       4.02      -2.96       8.68
N       5.44       3.72       5.09
N       4.85       3.25       7.50
N       4.39       2.99       8.74
N       2.81       2.37       7.22
N       0.78       1.16      11.82
