72

Zn       5.18       8.93       8.57
Zn       5.11       6.15       8.64
H       9.63       8.72      10.54
H       0.53       6.51      10.69
H       4.98       9.53       4.32
H       5.83       5.57      12.84
H       5.22       9.55       1.81
H       5.98       5.55      15.36
H       5.19       9.81      12.90
H       5.60       5.29       4.35
H       3.75      11.12       9.89
H       6.55       3.98       7.33
H       3.73      13.65       9.90
H       0.67       6.36       6.70
H       6.61       1.44       7.35
H       3.51       1.55      10.35
H       6.84      13.53       6.91
H       3.57       4.09      10.20
H       6.74      10.99       7.04
H       0.41       9.89       8.55
H       9.89       5.18       8.69
H       9.77       8.56       6.56
C       5.32       7.68      11.24
C       4.41      11.70       9.26
C       5.93       2.00       7.99
C       4.40      13.09       9.26
C       5.06       1.33       8.86
C       5.29      13.76       8.40
C       4.19       2.07       9.67
C       6.15      13.01       7.58
C       4.22       3.46       9.59
C       6.09      11.62       7.65
C       2.54       7.64       8.69
C       5.16       7.41       5.97
C       7.76       7.44       8.54
C       0.08       8.85       8.58
C      10.22       6.23       8.66
C      10.08       8.20       9.69
C       0.22       6.88       7.55
C       9.24       7.45       8.58
C       1.06       7.63       8.66
C      10.15       8.11       7.47
C       0.14       6.96       9.77
C       5.47       7.69      12.73
C       5.64       7.66      15.54
C       5.29       7.41       4.47
C       5.72       6.48      13.42
C       5.18       8.62       3.76
C       5.80       6.47      14.80
C       5.32       8.63       2.38
C       5.57       7.44       1.68
C       5.45       8.88      14.84
C       5.67       6.23       2.40
C       5.36       8.89      13.45
C       5.53       6.22       3.78
C       5.90       3.39       7.98
I       5.21      10.69      15.89
I       6.08       4.43       1.40
N       5.65       7.71      16.94
N       5.64       7.39       0.27
N       5.06       4.10       8.76
N       5.24      10.99       8.47
N       4.97      -0.08       8.98
N       5.39      15.17       8.28
O       5.25       8.81      10.65
O       5.11       6.28       6.56
O       5.26       6.54      10.68
O       5.11       8.56       6.53
O       3.14       8.76       8.67
O       7.16       6.31       8.55
O       3.10       6.49       8.72
O       7.20       8.59       8.51
