136

Zn       7.70       6.84       8.77
Zn       7.79       9.81       8.88
H       0.73       6.12       9.50
H      14.72      10.30       7.76
H       6.52       9.80       4.46
H       9.38       7.04      12.91
H       6.89       9.94       1.99
H       9.75       7.28      15.37
H       8.75       2.05      10.66
H       5.80      14.51       7.62
H       7.90       4.21       5.23
H       6.76       5.35       3.35
H       4.57       6.50       3.74
H       3.54       6.48       5.99
H       4.68       5.33       7.88
H      11.20      12.36       9.04
H      12.93      11.30      10.48
H      12.31      10.37      12.69
H       9.95      10.52      13.49
H       8.21      11.55      12.05
H      15.38      11.91       9.27
H       0.26      13.77      10.71
H       1.85      13.31      12.57
H       2.67      10.99      12.97
H       1.89       9.14      11.54
H       1.11       5.35       6.85
H       0.63       3.50       5.28
H      14.20       3.12       4.48
H      12.35       4.61       5.27
H      12.84       6.46       6.82
C       7.60       8.31      11.37
C       8.03       8.53       6.29
C      10.26       8.13       8.91
C       5.22       8.33       8.72
C       0.31       7.05       9.12
C      15.16       9.39       8.18
C      15.28       7.99       9.90
C       0.21       8.46       7.41
C      11.70       8.13       8.87
C       3.78       8.38       8.69
C      15.29       7.16       7.85
C       0.17       9.29       9.45
C      14.31       8.14       8.64
C       1.16       8.29       8.65
C      12.91       8.12       8.75
C       2.57       8.36       8.65
C       9.62       8.09       2.84
C       7.06       9.33      15.01
C       9.36       7.95       4.21
C       6.85       9.18      13.64
C       8.26       8.57       4.80
C       7.69       8.36      12.87
C       7.38       9.30       4.00
C       8.73       7.67      13.51
C       7.59       9.40       2.63
C       8.94       7.81      14.87
C       8.72       8.81       2.02
C       8.11       8.64      15.66
C       8.82       8.89       0.62
C       8.26       8.66      17.06
C       8.28       2.55       9.83
C       6.61      14.04       8.18
C       8.22       3.94       9.77
C       6.70      12.66       8.25
C       7.04       3.98       7.78
C       8.57      12.68       9.61
C       7.07       2.59       7.77
C       8.56      14.07       9.55
C       7.69       1.83       8.78
C       7.59      14.79       8.83
C       7.68       0.42       8.78
C       7.59      16.20       8.79
C       6.37       4.70       6.67
C       6.94       4.69       5.39
C       6.30       5.34       4.34
C       5.08       5.99       4.56
C       4.49       5.98       5.83
C       5.13       5.34       6.89
C       9.59      12.00      10.45
C      10.93      11.96      10.01
C      11.90      11.36      10.82
C      11.55      10.84      12.07
C      10.22      10.91      12.51
C       9.24      11.49      11.70
C       0.61      10.40      10.31
C       0.17      11.71      10.09
C       0.61      12.75      10.90
C       1.50      12.50      11.94
C       1.96      11.19      12.17
C       1.51      10.15      11.36
C      14.95       6.04       6.95
C       0.09       5.19       6.51
C      15.72       4.15       5.62
C      14.41       3.94       5.17
C      13.38       4.77       5.61
C      13.65       5.82       6.49
N       7.65       4.66       8.80
N       7.63      11.97       8.92
N      14.75       7.78      11.24
N       0.68       8.67       6.04
N       6.38       1.85       6.69
N       9.58      14.84      10.29
N      10.83       7.50       2.25
N       6.14      10.15      15.81
N      10.30       7.23       5.10
N       5.73       9.89      12.98
N       8.89       4.63      10.91
N       5.66      11.93       7.46
O       7.92       7.22      10.82
O       8.30       9.62       6.90
O       7.26       9.40      10.81
O       7.58       7.46       6.78
O       9.69       7.06       8.53
O       5.84       9.39       8.40
O       9.69       9.20       9.31
O       5.73       7.21       9.05
O      14.09       8.72      11.71
O      14.97       6.69      11.79
O       0.12       9.54       5.36
O       1.61       7.93       5.66
O       5.15       1.79       6.76
O       7.10       1.33       5.83
O       9.36      15.03      11.49
O      10.53      15.26       9.62
O      11.27       8.03       1.23
O      11.32       6.51       2.82
O       6.65      10.91      16.64
O       4.93      10.01      15.59
O      10.01       6.07       5.40
O      11.25       7.89       5.53
O       5.79      11.13      12.98
O       4.84       9.19      12.51
O       9.97       5.17      10.68
O       8.32       4.51      12.00
O       4.51      11.99       7.90
O       6.03      11.44       6.40
