135

Cu       4.61       2.60      13.50
Cu       4.72      15.34      15.41
Cu       8.42      10.42      28.90
P       3.45       8.12       1.65
P       5.88       9.81      27.25
P       2.04       1.31      12.09
P       7.29      16.63      16.81
P       2.15       4.66      13.86
P       7.18      13.28      15.05
H       5.74      12.22      28.81
H       3.60       5.71       0.09
H       2.26      10.01       3.53
H       7.07       7.93      25.37
H       2.75      10.51       5.90
H       6.58       7.42      23.00
H       6.04       7.72       5.80
H       3.29      10.22      23.11
H       5.52       7.19       3.43
H       3.81      10.74      25.47
H       4.23      11.53       7.32
H       5.10       6.41      21.58
H       5.74      10.19      11.12
H       3.60       7.74      17.78
H       5.36       7.41       7.88
H       3.98      10.52      21.02
H       2.74       8.78      11.23
H       6.60       9.16      17.67
H       3.36       7.11      12.96
H       5.97      10.82      15.94
H       5.19       4.58      11.70
H       4.15      13.35      17.20
H       4.57       6.23       9.96
H       4.77      11.70      18.94
H       2.97      12.83       8.72
H       6.36       5.11      20.18
H       2.54      14.97       9.86
H       6.79       2.96      19.04
H       6.00      14.37      12.35
H       3.33       3.56      16.55
H       6.45      12.23      11.21
H       2.88       5.70      17.69
H       5.95       6.12      16.69
H       3.38      11.82      12.22
H       5.10       5.51      15.26
H       4.24      12.43      13.64
H       5.53       7.65      14.04
H       3.81      10.28      14.86
H       6.51       8.25      15.40
H       2.82       9.69      13.50
H       4.76       7.99      15.61
H       4.57       9.94      13.29
H       3.66       1.69       9.76
H       5.68      16.24      19.14
H       4.23       2.95      10.88
H       5.11      14.98      18.03
H       2.32       3.38       8.48
H       7.01      14.55      20.42
H       4.03       3.90       8.58
H       5.31      14.03      20.32
H       2.80       4.65       9.64
H       6.53      13.28      19.27
C       3.86       8.56       3.33
C       5.48       9.38      25.57
C       3.09       9.51       4.03
C       6.24       8.43      24.88
C       3.38       9.80       5.36
C       5.96       8.14      23.54
C       4.43       9.14       6.02
C       4.90       8.79      22.88
C       5.19       8.20       5.31
C       4.14       9.73      23.59
C       4.91       7.90       3.98
C       4.42      10.03      24.92
C       4.76       9.44       7.44
C       4.58       8.50      21.46
C       4.60      10.73       7.96
C       4.74       7.20      20.94
C       4.96      11.02       9.29
C       4.38       6.91      19.61
C       5.49      10.00      10.08
C       3.84       7.94      18.82
C       5.64       8.69       9.59
C       3.69       9.24      19.31
C       5.26       8.42       8.27
C       4.07       9.51      20.63
C       6.12       7.63      10.50
C       3.21      10.30      18.41
C       2.16       7.86      11.34
C       7.17      10.08      17.56
C       2.52       6.92      12.30
C       6.82      11.02      16.60
C       1.77       5.74      12.46
C       7.56      12.20      16.45
C       5.78       5.48      11.58
C       3.56      12.45      17.32
C       5.43       6.42      10.60
C       3.90      11.52      18.30
C       4.75      12.36       9.88
C       4.59       5.57      19.02
C       3.66      13.17       9.49
C       5.67       4.76      19.41
C       3.41      14.38      10.14
C       5.92       3.55      18.76
C       4.24      14.81      11.19
C       5.10       3.13      17.71
C       5.34      14.03      11.55
C       3.99       3.90      17.35
C       5.59      12.83      10.90
C       3.74       5.11      18.00
C       5.90       6.17      15.59
C       3.43      11.76      13.31
C       5.67       7.60      15.13
C       3.66      10.34      13.77
C       3.39       2.66      10.22
C       5.94      15.27      18.69
C       3.12       3.71       9.17
C       6.22      14.22      19.74
O       1.99       7.67       1.61
O       7.34      10.27      27.30
O       3.66       9.48       0.82
O       5.67       8.46      28.08
O       4.43       7.03       1.14
O       4.91      10.90      27.76
O       6.19       3.57      14.03
O       3.14      14.36      14.87
O       2.12       5.66      15.12
O       7.22      12.27      13.78
O       3.61       4.25      13.77
O       5.72      13.69      15.13
O       5.64       1.30      12.46
O       3.70      16.64      16.44
O       2.19       2.50      11.01
O       7.14      15.44      17.89
O       3.04       1.45      13.23
O       6.29      16.49      15.67
