412

Zn       9.25      18.14      16.87
Zn       4.45      17.27      20.28
Zn       0.35       5.46       7.90
Zn       5.15       6.34       4.48
Zn       7.14      23.50      17.90
Zn       2.34      11.92      19.25
Zn       2.46       0.11       6.87
Zn       7.26      11.69       5.51
Zn       2.30      22.90      21.38
Zn       7.10      12.51      15.76
Zn       7.30       0.71       3.38
Zn       2.50      11.10       9.00
Zn       3.13      15.65      12.83
Zn       7.93      19.76      24.32
Zn       6.47       7.96      11.94
Zn       1.67       3.85       0.44
Zn       4.27      18.82       7.83
Zn       9.07      17.32       4.55
Zn       5.33       4.79      16.93
Zn       0.53       6.29      20.21
H       1.67      16.76      18.94
H       6.47      18.65      18.20
H       7.93       6.84       5.82
H       3.13       4.96       6.56
H       1.99      20.44      16.91
H       6.79      14.97      20.24
H       7.60       3.16       7.85
H       2.81       8.64       4.53
H       4.25      20.07      18.49
H       9.05      15.35      18.66
H       5.35       3.54       6.27
H       0.55       8.26       6.11
H       9.10      21.11      17.96
H       4.30      14.30      19.19
H       0.50       2.50       6.81
H       5.30       9.31       5.58
H       7.04      19.32      14.75
H       2.25      16.09      22.40
H       2.55       4.29      10.02
H       7.35       7.52       2.37
H       6.03      21.87      15.17
H       1.24      13.54      21.98
H       3.56       1.73       9.60
H       8.36      10.07       2.79
H       4.18      -0.24      19.09
H       8.97      11.31      18.06
H       5.42      23.84       5.67
H       0.62      12.30       6.71
H       7.04      21.19      20.15
H       2.24      14.22      17.00
H       2.56       2.42       4.62
H       7.36       9.38       7.77
H       4.79      20.90      21.76
H       9.59      14.51      15.39
H       4.80       2.71       3.01
H       0.00       9.09       9.37
H       9.12      22.32      20.15
H       4.32      13.09      17.00
H       0.48       1.29       4.62
H       5.28      10.51       7.77
H       2.03       1.30      19.53
H       6.82       9.78      17.62
H       7.57      22.31       5.24
H       2.77      13.83       7.14
H       9.41       1.47      17.81
H       4.61       9.61      19.34
H       0.19      22.14       6.95
H       4.99      14.00       5.43
H       5.11      13.42      13.54
H       0.31      21.99      23.61
H       4.49      10.19      11.23
H       9.29       1.62       1.16
H       4.58      17.08      15.57
H       9.38      18.33      21.58
H       5.02       6.53       9.20
H       0.22       5.28       3.18
H       6.56      15.61      16.83
H       1.76      19.80      20.32
H       3.04       8.00       7.94
H       7.84       3.80       4.45
H       3.47      13.92      10.12
H       8.26      22.22       2.27
H       6.13       9.69      14.65
H       1.33       1.38      22.50
H       1.15      10.93      11.96
H       5.94       0.88       0.43
H       8.45      12.68      12.81
H       3.65      22.73      24.34
H       1.50      13.03      13.74
H       6.30      22.38      23.40
H       8.09      10.58      11.02
H       3.29       1.23       1.36
H       2.20      17.19      15.45
H       7.00      18.22      21.70
H       7.39       6.41       9.31
H       2.59       5.39       3.07
H       9.52      15.73      12.23
H       4.73      20.41       0.16
H       0.07       7.88      12.54
H       4.87       3.20      24.61
H       7.82      16.72      14.19
H       3.02      18.69      22.96
H       1.78       6.89      10.57
H       6.58       4.91       1.81
H       2.84      16.57       9.67
H       7.64      19.57       2.72
H       6.76       7.04      15.10
H       1.96       4.04      22.05
H       5.61      17.56      12.69
H       0.81      17.85      24.46
H       3.99       6.04      12.08
H       8.78       5.76       0.31
H       6.19      19.03      10.39
H       1.39      17.11       1.99
H       3.41       4.58      14.38
H       8.21       6.49      22.77
H       1.31      19.07       6.59
H       6.10      17.07       5.79
H       8.29       4.54      18.18
H       3.49       6.53      18.97
H       1.92      15.28       4.84
H       6.72      20.86       7.54
H       7.67       8.33      19.92
H       2.88       2.75      17.23
H       4.12      15.94       6.41
H       8.92      20.20       5.97
H       5.48       7.66      18.36
H       0.68       3.41      18.79
H       5.75       2.00      18.55
H       0.96       9.07      18.60
H       3.84      21.61       6.22
H       8.64      14.53       6.16
H       6.42       3.00      14.51
H       1.62       8.08      22.64
H       3.18      20.61      10.26
H       7.98      15.53       2.12
H       7.12       0.33      14.92
H       2.32      10.74      22.23
H       2.48      23.27       9.84
H       7.28      12.87       2.54
H       4.58       0.97      22.17
H       9.38      10.10      14.98
H       5.01      22.64       2.60
H       0.22      13.50       9.78
H       7.20       2.93      23.24
H       2.40       8.14      13.91
H       2.40      20.67       1.53
H       7.19      15.47      10.86
H       6.35       1.39      23.33
H       1.55       9.69      13.81
H       3.25      22.22       1.43
H       8.05      13.92      10.95
H       8.66       0.98      22.60
H       3.87      10.09      14.55
H       0.93      22.62       2.16
H       5.73      13.52      10.22
H       8.50       2.11      21.23
H       3.70       8.97      15.91
H       1.10      21.50       3.53
H       5.90      14.64       8.85
H       7.57       0.59      21.26
H       2.77      10.48      15.89
H       2.03      23.02       3.50
H       6.83      13.12       8.88
H       5.41       3.85      20.13
H       0.61       7.23      17.02
H       4.19      19.76       4.64
H       8.99      16.38       7.75
H       7.03       4.00      20.86
H       2.23       7.07      16.28
H       2.57      19.61       3.90
H       7.37      16.53       8.48
H       5.65       6.01      21.37
H       0.85       5.06      15.78
H       3.95      17.59       3.39
H       8.74      18.55       8.99
H       5.95       5.12      22.88
H       1.15       5.95      14.26
H       3.65      18.48       1.88
H       8.45      17.65      10.50
H       4.37       4.99      22.07
H       9.17       6.08      15.07
H       5.23      18.61       2.69
H       0.43      17.53       9.69
C       2.06      17.71      18.59
C       6.86      17.70      18.55
C       7.53       5.89       6.17
C       2.74       5.91       6.21
C       2.26      19.62      17.56
C       7.06      15.79      19.59
C       7.34       3.99       7.20
C       2.54       7.81       5.18
C       3.39      19.42      18.34
C       8.18      15.99      18.81
C       6.21       4.18       6.43
C       1.41       7.62       5.95
C       8.40      20.97      17.14
C       3.60      14.44      20.01
C       1.20       2.64       7.62
C       6.00       9.17       4.76
C       7.32      20.07      15.49
C       2.52      15.34      21.66
C       2.28       3.54       9.28
C       7.08       8.26       3.10
C       6.82      21.34      15.69
C       2.02      14.07      21.46
C       2.78       2.27       9.07
C       7.58       9.54       3.31
C       4.66      23.27      19.60
C       9.46      12.14      17.55
C       4.94       0.34       5.17
C       0.14      11.47       7.22
C       6.12      21.76      20.17
C       1.32      13.65      16.98
C       3.48       1.85       4.60
C       8.28       9.96       7.78
C       5.01      21.61      20.97
C       0.21      13.80      16.18
C       4.59       1.99       3.80
C       9.39       9.81       8.59
C       9.50      23.24      19.73
C       4.70      12.17      17.42
C       0.10       0.37       5.04
C       4.90      11.44       7.35
C       1.19       0.63      19.37
C       5.98      10.45      17.77
C       8.41      22.98       5.39
C       3.61      13.16       6.99
C       0.08       0.72      18.55
C       4.88      10.36      18.60
C       9.52      22.89       6.22
C       4.72      13.25       6.17
C       5.24      14.22      14.26
C       0.44      21.19      22.89
C       4.36       9.38      10.51
C       9.16       2.42       1.87
C       4.97      16.10      15.32
C       0.18      19.31      21.82
C       4.62       7.51       9.44
C       9.42       4.30       2.94
C       5.96      15.37      15.96
C       1.17      20.04      21.19
C       3.63       8.23       8.81
C       8.43       3.57       3.57
C       2.91      13.38      10.87
C       7.71      22.76       1.51
C       6.69      10.23      13.89
C       1.89       0.84      23.26
C       1.70      11.85      11.85
C       6.50      24.29       0.53
C       7.90      11.76      12.92
C       3.10      -0.68      24.23
C       1.87      12.90      12.73
C       6.67      22.51      24.42
C       7.73      10.71      12.04
C       2.93       1.10       0.35
C       1.35      16.94      14.83
C       6.15      18.47      22.32
C       8.24       6.67       9.94
C       3.44       5.13       2.45
C       0.15      16.19      13.18
C       4.95      19.22      23.96
C       9.45       7.42      11.58
C       4.65       4.38       0.80
C       8.90      16.69      14.15
C       4.10      18.72      23.00
C       0.70       6.92      10.61
C       5.50       4.89       1.77
C       3.67      17.05      10.19
C       8.47      19.09       2.20
C       5.93       6.56      14.58
C       1.13       4.52      22.57
C       5.12      17.58      11.72
C       0.32      18.56       0.66
C       4.48       6.03      13.04
C       9.28       5.05      24.10
C       5.40      18.30      10.58
C       0.61      17.84       1.80
C       4.19       5.31      14.18
C       8.99       5.77      22.97
C       1.78      18.13       6.31
C       6.58      18.01       6.07
C       7.82       5.48      18.45
C       3.02       5.60      18.69
C       2.13      16.18       5.42
C       6.93      19.96       6.97
C       7.47       7.43      19.35
C       2.67       3.64      17.80
C       3.22      16.51       6.19
C       8.02      19.63       6.20
C       6.37       7.10      18.58
C       1.58       3.98      18.57
C       6.04       1.91      17.50
C       1.24       9.17      19.65
C       3.56      21.70       7.26
C       8.36      14.44       5.12
C       6.39       2.39      15.41
C       1.59       8.68      21.74
C       3.21      21.21       9.36
C       8.01      14.93       3.03
C       6.73       1.07      15.61
C       1.93      10.00      21.54
C       2.87      22.53       9.15
C       7.67      13.61       3.23
C       4.61       1.92      21.59
C       9.41       9.15      15.56
C       4.99      21.69       3.18
C       0.19      14.45       9.20
C       6.81       2.10      22.64
C       2.02       8.98      14.51
C       2.78      21.51       2.13
C       7.58      14.63      10.25
C       7.95       1.41      21.88
C       3.15       9.66      15.26
C       1.65      22.20       2.88
C       6.45      13.94       9.50
C       5.95       3.89      21.08
C       1.15       7.18      16.06
C       3.64      19.71       3.68
C       8.44      16.42       8.70
C       5.45       5.07      21.91
C       0.65       6.00      15.24
C       4.15      18.53       2.86
C       8.95      17.61       9.52
N       1.42      18.53      17.73
N       6.22      16.88      19.41
N       8.17       5.08       7.03
N       3.37       6.72       5.35
N       3.25      18.21      18.99
N       8.05      17.20      18.16
N       6.34       5.40       5.78
N       1.55       6.41       6.60
N       8.31      19.84      16.41
N       3.51      15.57      20.73
N       1.28       3.77       8.35
N       6.08       8.04       4.03
N       7.51      21.91      16.74
N       2.72      13.50      20.41
N       2.08       1.70       8.02
N       6.88      10.10       4.36
N       5.89      22.82      19.30
N       1.09      12.59      17.85
N       3.71       0.79       5.46
N       8.51      11.01       6.92
N       4.09      22.57      20.60
N       8.88      12.84      16.55
N       5.51       1.03       4.17
N       0.71      10.77       8.22
N       8.87      -0.38      18.78
N       4.07      11.45      18.37
N       0.73      23.98       5.98
N       5.53      12.16       6.40
N       1.06      -0.53      20.11
N       5.86      11.61      17.03
N       8.54      24.14       4.65
N       3.74      12.00       7.73
N       6.13      14.19      15.27
N       1.33      21.22      21.88
N       3.47       9.42       9.50
N       8.27       2.38       2.88
N       4.52      15.36      14.25
N       9.31      20.05      22.90
N       5.08       8.25      10.52
N       0.28       3.56       1.87
N       2.37      12.16      10.68
N       7.16      23.98       1.70
N       7.23      11.44      14.09
N       2.43      -0.37      23.06
N       2.63      13.86      12.10
N       7.43      22.28       0.28
N       6.96       9.74      12.67
N       2.16       1.33      24.48
N       1.45      16.35      13.63
N       6.25      19.06      23.52
N       8.15       7.26      11.14
N       3.35       4.55       1.24
N       0.08      17.16      15.19
N       4.88      18.25      21.96
N       9.52       6.44       9.57
N       4.72       5.36       2.81
N       4.02      16.79      11.46
N       8.81      19.35       0.92
N       5.58       6.82      13.30
N       0.78       4.26      23.84
N       4.48      17.96       9.62
N       9.28      18.18       2.77
N       5.12       5.65      15.15
N       0.32       5.42      22.00
N       2.99      17.75       6.75
N       7.79      18.39       5.64
N       6.60       5.86      18.02
N       1.81       5.22      19.13
N       1.22      17.21       5.50
N       6.02      18.93       6.88
N       8.38       6.40      19.26
N       3.58       4.68      17.88
N       5.95       2.92      16.61
N       1.15       8.16      20.54
N       3.65      20.69       8.15
N       8.44      15.45       4.23
N       6.50       0.77      16.94
N       1.70      10.30      20.20
N       3.09      22.83       7.82
N       7.89      13.31       4.56
N       5.76       2.61      21.76
N       0.96       8.46      15.38
N       3.84      21.00       3.00
N       8.64      15.14       9.38
O       3.67       2.28      20.86
O       8.47       8.80      16.29
O       5.93      21.33       3.90
O       1.13      14.81       8.48
