120

Zn       3.96      17.20       0.96
Zn       2.47      -8.14      14.52
Zn      -8.48      -0.40      14.49
Zn      14.68       9.43       0.96
Zn       3.90       5.63       7.66
Zn       2.34       3.43       7.73
H       7.90      -4.35      13.28
H       0.96       8.74       9.46
H       0.32       3.81      11.49
H      13.20       5.22       0.67
H       1.68       4.39      12.50
H      -1.30       4.72      13.19
H       0.06       5.31      14.18
H       4.68       1.45      13.94
H       3.32       2.15      11.99
H       7.71       2.46       8.95
H       7.75       4.10       9.66
H       6.77      -0.72       4.11
H       9.06       1.58      10.87
H       9.14       3.22      11.57
H      -2.90       6.53       4.33
H       5.83      -5.83      13.64
H      -1.54       5.16       5.88
H       2.89       7.50       3.98
H       2.83       6.05       2.93
H       1.52       8.76       2.29
H       1.43       7.31       1.26
H      13.22       2.69       1.01
H      -4.94       5.43      13.39
H       6.47       3.91       1.45
H       5.32       4.98       3.36
H       6.91       1.06       6.63
H       5.42       0.30       5.98
H       8.24       0.07       4.73
H      -6.27       3.35      13.22
H      -1.34      12.58       2.96
H       0.08      11.51       3.08
H       0.16      14.58       3.16
H       1.59      13.51       3.25
H      -0.77       9.58      11.03
C       7.74       1.43       1.42
C       1.20      14.31       0.09
C      -5.30       4.95      14.30
C      11.43       1.59       0.35
C      -6.06       3.78      14.20
C      -6.61       3.16      15.34
C      -0.12      12.53       1.11
C      -0.31      12.42       2.61
C       0.64      13.69       2.73
C      -0.29       6.51      12.36
C      -0.83       7.79      12.24
C       6.98       2.10       2.51
C      -0.37       8.57      11.16
C       0.60       8.09      10.27
C       1.10       6.78      10.37
C      -1.78       8.30      13.26
C       0.61       6.01      11.42
C       0.70       4.65      12.10
C      -0.33       5.23      13.16
C       7.46       1.27      14.07
C       8.36      -2.26      15.06
C      -2.02       7.99       2.16
C       6.39       3.38       2.39
C      -7.52       1.99      15.23
C       1.24       5.05       5.99
C       4.78       3.89       5.84
C       4.22       3.19       9.59
C       2.00      15.56       0.20
C       2.01       6.16       9.38
C       7.16       2.23      11.79
C       6.59       1.78      12.98
C       5.18       1.79      13.03
C       4.41       2.19      11.93
C       5.73       3.98       3.47
C       5.01       2.68      10.75
C       6.40       2.70      10.73
C       7.61       3.03       9.88
C       8.48       2.48      11.09
C       0.16       7.18       3.07
C       7.43      -4.47      14.26
C      -1.23       7.24       3.16
C      -1.82       6.51       4.21
C      -1.05       5.74       5.09
C       0.36       5.72       5.01
C       5.55       3.31       4.70
C       0.93       6.47       3.99
C       2.24       6.88       3.34
C       1.37       7.67       2.29
C       7.60      -3.52      15.20
C       6.49      -5.56      14.48
C      12.52       2.56       0.18
C       6.84       1.47       3.74
C       6.11       2.04       4.79
C       6.33       0.85       5.71
C       7.17       0.22       4.53
C       0.71      13.65       1.22
O       8.61       0.59       1.80
O       0.90       3.91       6.50
O       5.08       5.09       6.21
O       7.47       1.72       0.19
O       3.90       3.15       6.37
O       4.64       4.26       9.05
O       3.19       2.51       9.22
O       2.98       6.85       8.87
O       1.77       4.95       9.09
O      11.60       0.64       1.21
O       4.22      -7.07      15.09
O       7.11       1.43      15.30
O      -1.59       7.89      14.45
O      -2.71       9.11      12.89
O       2.93      15.56       1.10
O      -4.46       7.72      14.88
O       8.53       0.70      13.69
O       9.32      -2.17      14.20
O      14.15       7.47       0.37
O      -1.60       7.93       0.96
O      -3.06       8.65       2.55
O      -7.24       1.10      14.34
O      -2.33      10.75       0.58
O       2.32       5.66       6.27
