152

Zn       7.55      12.32       8.38
Zn      -2.29      -2.05       8.82
Zn      -8.47      13.38      10.37
Zn       7.43      15.39       6.55
H       5.62      10.85      10.92
H      -2.01      -4.15      13.29
H      -2.75      -0.41      11.26
H      11.82      -5.29      10.85
H      12.53       0.04       6.04
H      -6.19      12.03       8.63
H      -0.35      -1.31       6.69
H       9.24      10.63       6.31
H       7.85      13.80       3.73
H      -5.21      13.18      10.89
H      -3.14       5.54       7.33
H      11.80       7.18       4.69
H      12.34       4.76       4.69
H      -0.63       1.80      15.00
H       0.20       2.99      17.02
H       9.79      -7.17      15.73
H       1.25       1.06       2.17
H      -4.87      -6.98      16.93
H      10.34      16.15       2.30
H       9.00      16.16       0.22
H       6.53      16.51       0.33
H       5.43      16.82       2.55
H      13.13      -1.75       4.60
H       2.72      -2.26      16.84
H       3.08      -4.68      16.47
H       1.14      -6.19      16.08
H      -1.17      -5.27      16.10
H      -1.54      -2.84      16.49
H       7.88       8.88       4.84
H       7.27       6.66       5.72
H       5.63       6.46       7.59
H       4.57       8.51       8.54
H       5.14      10.74       7.61
C       6.62      11.18      11.18
C      -3.69       0.44       7.98
C      -2.30      -3.37      12.60
C      11.45      -3.32       8.27
C      -2.67      -1.45      11.56
C      11.85      -4.67       9.96
C      13.38       0.02       6.71
C     -10.30      11.75      12.14
C       7.18      11.37      12.46
C      14.22       1.09       7.09
C      -2.20      -1.97      12.77
C      10.83      -3.85       9.44
C       6.93      11.29       5.67
C       0.96      -2.47       9.57
C      -7.16      11.84       8.19
C      15.87      -2.08       4.79
C      -1.24      -1.66       6.18
C       9.91      11.12       7.00
C       7.55      13.09       4.49
C       0.94      -4.49      10.43
C       7.37      11.70       4.38
C       1.82      -3.43      10.16
C      -7.51      10.95       7.15
C      -1.72      -1.36       4.90
C       9.52      -3.70       9.86
C       8.31      -3.62      10.12
C       7.00      -3.55      10.31
C       5.76      -3.50      10.39
C       4.43      -3.45      10.40
C       3.20      -3.41      10.32
C      -4.29       7.23       6.73
C      -5.44       7.73       6.06
C      12.65       6.81       5.26
C      12.95       5.46       5.27
C      -4.81       4.96       6.07
C      -3.99       5.88       6.75
C      -5.99       9.01       6.26
C      -4.66       3.58       6.31
C      14.20       2.41       6.66
C      -6.70       9.96       6.58
C       0.37      -0.92      16.84
C      -0.24      -0.17      15.79
C      -0.23       1.24      15.85
C       0.24       1.91      16.96
C       7.51       9.59       0.97
C       7.62       8.19       0.84
C      -0.90      -0.80      14.72
C       7.66      10.27       2.20
C       7.54      10.93       3.22
C      -1.57      -1.31      13.83
C      17.00       1.04       0.70
C      -0.85       0.87       1.74
C       0.50       1.11       1.38
C       0.88       1.30       0.07
C      11.93      -7.15      16.14
C      10.57      -7.22      16.49
C      -1.14       0.32       2.99
C      12.38      -7.19      14.81
C       6.56      11.34      13.71
C      -1.28      -0.45       3.93
C       8.66      16.49       3.60
C       9.27      16.29       2.35
C       8.50      16.30       1.18
C       7.12      16.48       1.25
C       6.50      16.66       2.48
C       7.27      16.67       3.65
C       0.56      -2.39      16.69
C       1.86      -2.92      16.70
C       2.07      -4.28      16.48
C       0.98      -5.13      16.26
C      -0.32      -4.61      16.27
C      -0.53      -3.25      16.48
C       6.58       9.97       6.18
C       7.16       8.81       5.65
C       6.82       7.55       6.16
C       5.90       7.44       7.20
C       5.31       8.59       7.74
C       5.64       9.85       7.23
N       7.54      11.49      10.23
N      -3.99      -0.87       8.11
N      -2.76      -3.64      11.36
N      12.70      -3.78       8.15
N      -2.98      -2.45      10.70
N       6.59      14.01       9.17
N      13.77      -1.12       7.33
N     -10.12      11.85      10.82
N       6.88      12.39       6.47
N      -0.31      -2.92       9.49
N      -8.27      12.47       8.62
N      15.64      -2.72       5.96
N      -2.12      -2.46       6.82
N       9.47      12.02       7.90
N       7.27      13.49       5.74
N      -0.31      -4.16      10.04
N       1.39      -1.18       9.10
N      -3.41       8.12       7.50
N      -2.55       0.93       8.63
N       8.15       7.45       2.01
N      15.56       1.04       1.01
N      10.90      -2.57       7.20
N      -9.19      12.04      12.96
O       2.46      -0.75       9.55
O       0.68      -0.58       8.27
O      -2.37       7.63       7.98
O      -3.75       9.31       7.63
O      -2.31       2.14       8.65
O      -1.78       0.07       9.19
O       9.29       7.73       2.39
O       7.40       6.61       2.54
O      14.77       0.96       0.05
O      15.21       1.14       2.19
O       9.78      -2.06       7.33
O      11.58      -2.51       6.13
O      -2.93      -6.69      14.19
O      -8.10      12.38      12.38
