207

Al       4.69       4.72      13.92
Al       6.44       2.03      13.93
Al       7.89       4.66      13.88
Al      -4.51      10.16       0.40
Al      -0.03       1.71       0.52
Al       5.06      10.40       0.47
H      10.19       4.09      22.25
H      -1.78       3.51       3.81
H       4.20       8.17       3.87
H      -2.62      10.78       3.91
H       9.76       4.31      10.43
H       4.34       6.47      10.45
H       5.15       0.29      10.45
H      -1.79       4.96       5.84
H       3.00       7.46       5.94
H      -1.39       9.97       5.93
H      -2.18       5.22       8.27
H       4.47       7.02      22.08
H       3.05       6.89       8.36
H      -0.81      10.22       8.33
H       3.31      10.75       4.00
H      -4.29       8.46       3.85
H       1.00       3.03       4.15
H       2.46       9.84       6.16
H      -2.99       8.06       5.95
H       0.69       4.21       6.32
H       2.04      10.11       8.58
H      -2.95       7.51       8.37
H       4.48       0.32      22.41
H       1.28       4.47       8.72
H       9.62       4.27      19.96
H       4.67       6.59      19.77
H       4.96       0.45      20.10
H       8.15       0.32      10.62
H       8.62       6.80      10.44
H       2.65       3.77      10.69
H      11.23       0.89      19.54
H       6.70       9.71      19.39
H       1.33       1.25      19.52
H       8.01       3.64      20.33
H      -1.22       2.61      19.66
H       5.08       9.05      19.36
H      -3.61      11.18      19.72
H      -0.89       2.36      21.97
H       4.89       9.42      21.68
H      -4.02      11.18      22.03
H      11.43       0.65      21.87
H       6.53      10.06      21.71
H       0.97       1.30      21.85
H       7.52       1.23      20.06
H       6.02       5.52      20.13
H       8.34       6.38      20.08
H       3.88       3.98      19.94
H       7.74       1.26      22.38
H       8.21       6.77      22.37
H       3.63       3.96      22.26
H       3.62      10.57      20.03
H       1.99       9.03      19.31
H       0.78      10.32      19.30
H       1.40       9.71      20.86
H      -4.01       9.25      19.77
H       5.46       2.13      20.33
H      -1.77       8.69      19.33
H      -2.17       6.97      19.52
H      -2.14       8.04      20.96
H       1.02       3.44      19.85
H       0.87       5.60      18.92
H       2.64       5.71      18.92
H       1.75       5.78      20.47
H       2.84      11.20      22.24
H      -4.27       8.49      22.10
H       1.89       3.73      22.04
H       2.70       5.66      14.74
H      -2.32       9.50       0.89
C       6.59       6.23      15.75
C      10.02       1.84      23.78
C       6.33       8.24      23.62
C       2.72       1.86      23.76
C       9.23       2.23      18.32
C       6.67       7.24      18.19
C       3.67       1.93      18.32
C       8.99       2.38      17.13
C       6.66       6.88      17.03
C       3.98       2.03      17.15
C       1.87       1.11       2.47
C       4.46       2.39      15.84
C      10.63       1.25       2.36
C       6.34       8.84       2.34
C       2.02       1.45      26.27
C      10.73       1.36      26.29
C       6.43       9.00      26.15
C       9.54       3.37       9.92
C       5.26       6.70       9.89
C       4.44       0.96       9.97
C       9.79       3.22       8.55
C       5.20       7.05       8.54
C       8.51       2.63      15.80
C       4.07       0.76       8.63
C      10.27       2.90       5.76
C       5.15       7.72       5.77
C       3.40       0.47       5.87
C       6.49       6.08      11.95
C       4.45       2.36      12.04
C       8.53       2.57      12.06
C      -2.20       4.13       6.43
C       3.94       7.43       6.49
C      -1.82      10.78       6.52
C       8.68       0.98      21.89
C      10.35       4.28       7.77
C       3.97       7.12       7.82
C      -1.50      10.92       7.84
C      10.53       2.71       4.39
C       5.14       8.08       4.41
C       3.08       0.36       4.51
C      10.22       1.50       3.77
C       6.34       8.34       3.74
C       2.23       1.29       3.90
C       8.63       1.11      10.03
C       7.87       7.64      21.80
C       7.68       6.89       9.89
C       3.02       2.93      10.10
C       8.88       0.92       8.67
C       7.67       7.26       8.54
C       2.62       2.76       8.76
C       9.46       1.99       7.91
C       6.42       7.32       7.85
C       3.17       1.68       8.01
C       2.46      10.93       7.99
C      -3.89       7.54       7.82
C       2.87       3.33      21.77
C       1.71       3.66       8.12
C       2.69      10.78       6.65
C      -3.92       7.85       6.49
C       1.39       3.52       6.80
C       9.37       0.60       5.87
C       7.62       7.91       5.77
C       1.95       2.47       6.01
C       9.08       3.44      20.45
C       5.64       6.54      20.27
C       4.64       1.42      20.50
C       8.55       0.98      20.34
C       9.70       1.83       6.52
C       6.40       7.65       6.46
C       2.84       1.54       6.63
C       9.63       0.46       4.50
C       7.57       8.24       4.41
C       1.67       2.33       4.64
C       8.95       2.33      10.66
C       6.48       6.60      10.56
C       3.93       2.05      10.68
C      10.93       1.80      20.07
C       8.01       7.41      20.26
C       6.05       8.97      19.86
C       2.23       0.95      20.08
C      11.11       1.66      21.60
C       5.93       9.20      21.39
C       1.99       0.95      21.61
C      10.26       1.66      24.96
C       6.33       8.50      24.80
C       2.46       1.79      24.94
C       9.45       2.11      19.75
C       6.61       7.55      19.61
C       3.03       3.34      20.22
C       3.39       1.90      19.74
C       9.39       3.39      21.95
C       5.50       6.80      21.78
C       4.39       1.35      22.01
C       9.79       1.96      22.35
C       6.41       7.97      22.19
C       2.99       1.90      22.33
C       1.68       9.95      19.82
C      -2.41       7.99      19.88
C       1.78       5.31      19.47
N       2.74      10.95      19.68
N      -3.81       8.27      19.58
N       1.88       3.85      19.48
O       4.14       3.53      15.41
O       4.09       3.46      12.56
O       7.79       1.70      12.63
O       7.65       5.89      12.50
O       5.38       5.82      12.49
O       5.27       1.52      12.58
O       8.87       3.69      12.60
O       6.36       3.79      13.92
O       7.46       9.03       1.78
O       1.14       2.03       1.93
O      10.26       0.16       1.81
O       7.74       1.75      15.29
O       2.24       0.05       1.88
O      11.40       2.11       1.80
O       5.19       9.10       1.80
O       6.63      11.18       0.46
O       2.31       0.30      26.67
O      11.57       2.17      26.81
O       5.32       9.21      26.78
O       7.71       6.00      15.15
O       7.59       9.22      26.58
O       1.31       2.33      26.91
O      10.34       0.25      26.81
O       5.44       5.88      15.35
O       5.21       1.53      15.23
O       8.84       3.74      15.26
O       3.15       5.58      13.89
O      -3.04       9.22       0.31
F       8.24       3.79      22.67
F       5.87       5.63      22.49
F       5.37       2.11      22.68
