130

Cd       6.66      14.07      11.89
Cd       4.41       5.98       5.06
H       2.11      12.97      10.97
H       8.96       7.08       5.98
H       9.48      11.76       9.94
H       1.59       8.29       7.01
H       3.06       9.25       7.82
H       8.01      10.80       9.13
H       4.89      10.49       8.87
H       6.18       9.56       8.08
H       8.49      16.72      11.02
H       2.58       6.40       2.30
H       2.58       3.33       5.93
H       8.49      13.65      14.66
H       9.28      15.17       7.16
H       1.79      10.47       3.18
H       1.79       4.88       9.80
H       9.28       9.58      13.77
H       7.69      13.36       8.61
H       3.38       9.34       5.21
H       3.38       6.69       8.34
H       7.69      10.71      11.75
H       2.06      15.51      10.00
H       9.01       7.61       3.32
H       9.01       4.54       6.95
H       2.06      12.44      13.63
H       7.31      17.56       7.81
H       3.76       9.42       0.93
H       3.76       2.49       9.14
H       7.31      10.63      16.02
H       5.38       2.28       6.60
H       5.69      13.16      15.80
H       5.69      17.77      10.35
H       5.38       6.88       1.15
H       6.70       4.35       6.18
H       4.37      13.23      13.69
H       4.37      15.69      10.77
H       6.70       6.82       3.27
H       6.43      18.82      13.10
H       4.64       4.00       0.58
H       4.64       1.23       3.85
H       6.43      16.05      16.38
H       5.51       3.52      14.68
H       5.56       4.99      15.92
H       5.56      16.53       2.27
H       5.51      15.06       1.03
C       4.78      12.53      10.59
C       6.29       7.52       6.36
C       3.63      11.81       9.98
C       7.44       8.24       6.97
C       2.30      12.15      10.27
C       8.77       7.90       6.68
C       1.25      11.46       9.69
C       9.82       8.59       7.26
C       1.47      10.39       8.79
C       9.60       9.66       8.16
C       2.81      10.06       8.51
C       8.26       9.99       8.45
C       3.86      10.75       9.09
C       7.21       9.29       7.86
C       8.50      16.03      10.19
C       2.57       7.34       2.84
C       2.57       4.02       6.77
C       8.50      12.71      14.11
C       8.88      15.20       8.16
C       2.19       9.47       3.32
C       2.19       4.85       8.79
C       8.89      10.58      13.63
C       8.11      14.32       8.89
C       2.96       8.90       4.31
C       2.96       5.73       8.06
C       8.11      11.15      12.64
C       2.61      16.43       9.82
C       8.46       7.64       2.39
C       8.46       3.62       7.13
C       2.61      12.41      14.57
C       1.98      17.51       9.15
C       9.09       8.12       1.20
C       9.09       2.54       7.80
C       1.98      11.93      15.75
C       9.88      17.46       8.71
C       1.19       8.55       1.18
C       1.19       2.59       8.24
C       9.88      11.50      15.77
C       9.25      18.52       8.05
C       1.82       9.03       0.03
C       1.82       1.53       8.90
C       9.25      11.02      16.93
C       7.89      18.46       7.62
C       3.18       9.47       0.01
C       3.18       1.58       9.33
C       7.89      10.58      16.94
C       6.41       2.33       6.96
C       4.66      12.80      15.81
C       4.66      17.71      10.00
C       6.41       7.25       1.15
C       7.15       3.52       6.71
C       3.92      12.85      14.60
C       3.92      16.53      10.24
C       7.15       7.20       2.35
C       6.51      16.17      13.68
C       4.56       3.88       3.28
C       6.45      17.31      14.64
C       4.62       2.74       2.31
C       6.43      18.64      14.18
C       4.64       2.97       0.93
C       4.64       1.41       2.77
C       6.43      17.08      16.02
C       6.43      19.70      15.08
C       4.64       1.91       0.04
C       4.64       0.35       1.87
C       6.43      18.14      16.92
C       6.44      19.48      16.47
C       4.63       0.57       0.48
N       7.89      14.85      10.14
N       3.18       7.58       3.99
N       3.18       5.20       6.81
N       7.89      12.47      12.96
N       9.13      16.28       9.00
N       1.95       8.47       2.40
N       1.95       3.77       7.95
N       9.13      11.58      14.56
O       4.52      13.50      11.41
O       6.56       6.55       5.54
O       5.97      12.19      10.30
O       5.10       7.86       6.65
O       6.54      16.43      12.42
O       4.53       5.07       2.82
O       4.53       3.62       4.53
O       6.54      14.98      14.13
