66

Zn       7.70       9.72       8.60
Zn       7.65       6.88       8.48
H       8.68      10.15      12.70
H       6.09       2.19       9.75
H       9.05       2.30       6.61
H       6.30      14.30      10.46
H       9.02       4.83       6.79
H       6.33      11.77      10.28
H       8.43      10.28      16.28
H       6.92       6.32       0.80
H       6.67       6.45       4.37
H       7.87      10.56       1.83
H       7.48       6.04      15.25
H       7.68      10.63       4.34
H       7.67       5.97      12.73
H       9.21      11.88       7.31
H       6.14       4.72       9.76
H       9.26      14.41       7.33
C       7.22       8.52       5.99
C       8.60      13.86       7.99
C       7.59       2.07       8.19
C       7.76      14.53       8.88
C       8.41       2.81       7.33
C       6.94      13.79       9.75
C       8.39       4.20       7.42
C       6.96      12.40       9.66
C      10.26       8.28       8.07
C       5.09       8.32       9.00
C      11.70       8.26       8.10
C       8.13       8.08      11.08
C       3.65       8.34       8.98
C      12.92       8.27       8.25
C       2.43       8.33       8.83
C      14.25       8.29       8.44
C       1.10       8.31       8.64
C       7.19       8.53       4.49
C       8.17       8.07      12.58
C       6.92       7.35       3.81
C       8.43       9.25      13.26
C       7.00       7.29       2.42
C       7.60       9.67       2.41
C       8.35       9.31      14.66
C       7.38       8.47       1.70
C       7.97       8.13      15.38
C       7.75       6.93      14.67
C       7.50       9.71       3.78
C       7.85       6.89      13.29
C       6.78       4.13       9.10
C       8.57      12.47       7.98
C       6.75       2.75       9.09
N       7.56       8.51       0.33
N       7.79       8.09      16.75
N       7.59       4.84       8.29
N       7.76      11.76       8.79
N       7.67       0.66       8.07
N       7.68      15.94       9.01
O       7.31       9.64       6.59
O       6.76       6.13       1.79
O       8.04       6.96      10.48
O       7.19       7.38       6.55
O       8.16       9.22      10.52
O       9.72       9.43       8.10
O       5.63       7.17       8.97
O       9.67       7.15       8.05
O       5.68       9.45       9.02
O       8.60      10.47      15.29
