190

Zn       5.41       7.66       9.30
Zn       5.44      10.49       9.43
H       5.88       5.67      11.30
H       4.63      10.64       2.41
H       3.75       7.36      12.90
H       3.09       7.38       5.81
H       4.38       7.01      17.54
H       4.26       6.99       1.23
H       2.25      10.99      11.88
H       0.62      11.74      12.07
H       3.08      13.17      10.93
H       1.51      13.91      11.28
H       1.84      13.39      13.76
H       5.17       5.53       7.24
H       3.14      14.42      13.12
H       3.43      12.69      13.37
H       9.13      11.46       7.41
H      -0.11      12.27       7.86
H       7.84      13.32       8.42
H       9.35      14.14       8.87
H       9.99      14.31       6.42
H       8.43      15.10       6.73
H       8.48      13.49       5.98
H       6.88       3.00      13.53
H       3.20      17.02       8.94
H       6.19       4.56      13.04
H       8.80       3.33      11.98
H       8.14       4.85      11.41
H       8.35       5.84      13.72
H       9.91       5.27      13.11
H       9.03       4.31      14.32
H       6.18       2.58       5.20
H       6.47       4.17       5.96
H       3.83       3.18       4.73
H       4.02       4.74       5.53
H       7.40      16.91       9.86
H       5.76       5.44       3.85
H       4.25       4.98       3.03
H       5.63       3.85       3.05
H       2.98       0.23       7.12
H       2.34       1.90       7.05
H       0.99      17.89       8.85
H       0.65       1.34       8.79
H       0.01       1.06       6.36
H       9.74      18.08       7.37
H       0.36      17.61       6.39
H       6.55      12.59      11.14
H       9.82       1.51      10.42
H       9.12      18.11       9.89
H       8.47       1.20      12.52
H       7.85      17.78      12.04
H      10.36      17.23      12.01
H       9.81      17.77      13.61
H       0.15       0.66      12.55
H       8.77      15.51      11.29
H       8.26      13.81      11.25
H       7.95      15.70      13.65
H       4.05      12.51       7.87
H       7.48      14.00      13.63
H       9.92      13.37      13.17
H       9.74      14.24      14.70
H      10.36      15.08      13.27
H       1.92      15.19       6.71
H       2.30      13.65       7.52
H       3.62      14.77       4.98
H       4.16      13.29       5.78
H       1.90      12.23       5.40
H       2.63      12.75       3.87
H       2.31       6.56      10.37
H       1.33      13.71       4.60
H       1.37      10.48       3.18
H       0.41       9.48       2.06
H       0.19      12.53       2.38
H      10.00      11.55       1.27
H       8.97      10.32       3.23
H       8.72      12.07       3.38
H       9.96      11.27       4.35
H      -0.17      10.46      17.47
H       0.67       9.30      16.41
H       8.55       6.65       8.41
H       0.21      12.25      15.74
H       1.06      11.08      14.73
H       9.72       9.67      14.60
H       9.44      11.29      13.96
H       8.87      10.87      15.58
H       4.75      10.80      16.30
C       4.82       9.12       6.85
C       4.31       9.11       5.44
C       3.80       7.78      18.05
C       3.77       7.77       0.64
C       3.11       8.80       1.32
C       3.26       8.84      17.31
C       2.45       9.80       0.58
C       2.49       9.81      17.96
C       5.76       5.02      10.43
C       5.34       4.95       8.13
C       5.85       3.63      10.50
C       5.46       9.05      11.94
C       5.40       3.55       8.14
C       5.61       2.86       9.35
C       2.91       9.10       9.82
C       7.93       9.16       9.07
C       4.42       0.69       9.07
C       6.76       0.64       9.68
C       4.14      17.52       9.12
C       6.50      17.47       9.67
C       5.30      16.79       9.41
C       5.60       1.39       9.38
C       3.66       8.99      15.89
C       6.03      14.58      10.40
C       4.49      14.54       8.55
C       6.02      13.18      10.40
C       4.57      13.14       8.57
C       5.27      15.31       9.45
C       1.32       6.60       9.94
C       9.54       6.66       8.85
C       0.69       5.42       9.63
C      10.19       5.45       9.01
C      10.13       7.89       9.25
C       3.37       8.93       2.77
C       0.71       7.86       9.69
C       1.42       9.09       9.89
C       9.43       9.14       9.20
C       0.71      10.30       9.86
C      10.11      10.32       9.49
C       5.10      10.13      14.29
C       4.72      10.04       4.47
C       4.51      10.05      15.55
C       4.26       9.95       3.16
C       1.57      11.78      11.50
C       3.35       8.05      14.90
C       2.22      13.14      11.62
C       2.68      13.42      13.05
C       9.60      12.15       8.13
C       8.89      13.48       8.12
C       8.95      14.13       6.74
C       6.82       3.72      12.70
C       8.21       4.20      12.29
C       8.91       4.95      13.42
C       5.70       3.40       5.76
C       4.55       3.98       4.95
C       2.94       8.03       3.75
C       5.08       4.60       3.65
C       2.46       1.01       7.70
C       1.10       0.54       8.18
C       0.17       0.19       7.01
C       9.03       0.74      10.50
C       8.85       0.33      11.96
C       9.94      18.09      12.56
C       8.05      14.79      11.72
C       8.21      14.72      13.22
C       9.63      14.33      13.61
C       3.96       8.11      13.65
C       2.72      14.45       6.90
C       3.28      13.92       5.58
C       2.23      13.11       4.82
C       0.82      10.49       2.22
C      10.50      11.54       2.25
C       9.49      11.29       3.36
C       0.60      10.37      16.69
C       0.25      11.19      15.47
C       9.69      10.73      14.87
C       3.41       8.11       5.06
C       4.87       9.13      13.32
N       5.50       5.64       9.27
N       5.33      12.50       9.48
Cl       1.48       3.92       9.97
Cl       9.43       4.00       8.47
Cl       6.16      11.47      14.02
Cl       5.89      11.26       4.85
Cl       2.21       6.78      15.21
Cl       1.81       6.77       3.34
O       5.34       8.03       7.25
O       9.52      11.56       9.45
O       6.14       2.97      11.66
O       5.29       2.80       7.01
O       3.31       1.45       8.79
O       7.88       1.38       9.92
O       6.73      15.26      11.36
O       3.70      15.20       7.66
O       1.72      10.82       1.14
O       1.87      10.80      17.23
O       5.33       7.92      11.38
O       4.65      10.19       7.51
O       5.99      10.09      11.42
O       3.44       8.07       9.28
O       7.35       8.09       9.43
O       3.56      10.12      10.19
O       7.33      10.22       8.71
O       1.28      11.52      10.10
