68

Zn       6.16       5.41       7.64
Zn       3.47       5.42       7.66
H       6.94       6.12       3.44
H       2.93       4.70      11.86
H       2.86       4.87       3.38
H       7.05       5.82      11.91
H       1.74       4.33       1.27
H       8.19       6.33      14.03
H       2.52       1.15       7.43
H       6.89       9.68       7.89
H       2.61       9.68       7.50
H       6.80       1.16       7.78
H       1.32       6.75       6.05
H       8.31       4.12       9.25
H       1.33       4.14       9.26
H       8.30       6.69       6.00
H       1.67       3.76      12.97
H       9.20       3.11      13.83
H       9.45       4.06      15.29
H       0.72       2.49      15.12
H       8.25       6.96       2.32
H       0.71       7.61       1.46
H       9.21       8.19       0.14
H       0.48       6.61       0.01
C       4.66       2.79       7.57
C       4.75       8.04       7.73
C       2.60       4.48      14.61
C       7.31       6.23       0.68
C       3.45       0.59       7.52
C       5.96      10.24       7.78
C       3.54      10.24       7.57
C       5.87       0.59       7.72
C       4.75       9.54       7.70
C       4.66       1.30       7.60
C       0.73       6.16       6.75
C       8.90       4.69       8.53
C       0.73       4.71       8.55
C       8.90       6.13       6.73
C       4.98       5.26      10.28
C       4.89       5.54       5.02
C       6.07       5.87       2.83
C       3.82       4.91      12.47
C       4.90       5.53       3.52
C       4.99       5.24      11.77
C       3.75       5.15       2.82
C       6.15       5.57      12.47
C       3.76       5.08       1.42
C       6.15       5.62      13.88
C       4.95       5.43       0.71
C       4.96       5.27      14.59
C       6.12       5.84       1.43
C       3.79       4.88      13.87
C       2.61       4.63       0.70
C       7.31       6.05      14.60
C       0.39       3.39      14.58
C       9.54       7.30       0.71
N       8.22       5.40       7.62
N       1.41       5.45       7.66
N       1.49       4.07      13.91
N       8.43       6.64       1.38
O       5.78       3.39       7.47
O       3.62       7.46       7.63
O       5.87       7.45       7.85
O       3.52       3.37       7.66
O       6.11       5.21       9.68
O       3.76       5.41       5.60
O       6.01       5.67       5.61
O       3.84       5.35       9.70
