96

Zn      12.74       7.72       7.85
Zn      10.06       7.46       8.78
H      10.80       6.17      12.84
H       8.80       5.29      10.42
H       6.47       4.45      10.87
H      16.31      10.78       5.79
H      16.85       5.94       9.51
H       5.94       9.25       7.10
H       8.06       6.71       5.07
H      14.73       7.39      11.63
H       7.67       6.11       0.45
H      15.32       6.14      16.08
H      15.62       6.77      13.88
H      12.11       7.03       3.68
H       7.30       6.22       2.75
H      11.37       6.53       1.36
H      11.66       5.51      15.07
H      16.54      14.63       8.10
H       6.27       0.53       8.19
H       8.74      11.62       8.23
H      14.11       3.51       8.29
H      14.29       1.01       8.28
H       8.53      14.11       8.12
H      14.60      13.18       8.05
H       8.19       2.00       8.24
H      18.71       4.73      10.53
H       4.08      10.47       6.10
H      15.36       6.85       8.60
H       7.44       8.31       7.98
H      13.98       9.95       6.26
C      11.96       5.01       8.10
C      12.03      12.46       8.53
C      10.86       1.30       8.07
C      11.97      13.89       8.33
C      12.16       0.71       8.15
C      10.66      14.46       8.23
C       9.70       0.42       8.15
C      13.12      14.77       8.21
C      14.44      14.24       8.12
C       8.37       0.93       8.21
C      15.53      15.06       8.13
C      10.95      10.16       8.45
C       7.28       0.10       8.20
C       6.64       5.31      10.23
C      16.14       9.90       6.42
C      12.17       7.26      10.78
C      10.58       7.35       5.87
C       7.92       5.76       9.99
C      14.86       9.45       6.66
C       7.15       7.47       8.62
C      15.64       7.71       7.99
C       5.80       7.10       8.79
C      11.99       3.50       8.07
C      16.99       8.09       7.82
C       5.54       5.98       9.64
C      17.24       9.22       6.99
C       4.71       7.81       8.17
C      18.08       7.38       8.43
C      17.86       6.26       9.30
C       4.92       8.93       7.31
C       4.20       5.58       9.87
C      18.59       9.62       6.75
C      12.71       6.84      12.10
C      10.88      11.67       8.44
C      10.12       6.97       4.50
C      11.86       6.29      13.08
C      11.05       6.87       3.45
C      12.35       5.93      14.32
C      10.63       6.58       2.16
C      13.71       6.12      14.65
C       9.26       6.40       1.87
C      14.56       6.62      13.65
C       8.35       6.41       2.95
C      14.07       6.98      12.40
C      13.32       1.51       8.22
C       8.77       6.69       4.24
C      14.25       5.92      15.99
C       8.74       6.30       0.52
C      13.23      11.81       8.98
C       9.63       3.42       7.51
C       9.51      13.64       8.21
C      13.24       2.88       8.21
C       9.62      12.27       8.27
C      10.81       2.73       7.93
N       8.16       6.84       9.20
N      14.63       8.36       7.42
N      14.18      11.31       9.44
N       8.67       3.93       7.08
O      13.04       5.62       7.84
O       9.95       9.53       8.91
O      10.85       5.54       8.43
O      12.00       9.66       7.95
O      13.01       7.59       9.88
O       9.68       7.55       6.76
O      10.90       7.26      10.63
O      11.84       7.46       6.05
