264

Zr      11.03      13.58      11.06
Zr      11.03      11.09       8.56
Zr      13.54      11.09      11.05
Zr      11.05       8.58      11.05
Zr       8.54      11.07      11.07
Zr      11.05      11.08      13.56
H       9.09       9.11      13.04
H      11.21       0.02       4.61
H      10.95       3.41       1.23
H      10.89       3.42      20.88
H      11.68      16.08       3.63
H      11.56      14.17       5.25
H      10.85      16.94       8.46
H      10.94      18.85       6.85
H      10.87       8.00       5.18
H      10.90       6.09       3.57
H      11.09       3.33       6.88
H      11.04       5.26       8.47
H      10.94       0.02      17.50
H      11.17      18.75      20.87
H      11.27      18.74       1.23
H      11.36       6.07      18.51
H      11.42       7.98      16.89
H      10.75       5.27      13.64
H      10.65       3.35      15.24
H      10.97      14.17      16.90
H      11.00      16.07      18.53
H      11.09      18.85      15.23
H      11.05      16.94      13.63
H      17.48      11.15       0.02
H      20.83      10.82      18.75
H       1.20      10.82      18.73
H      18.51      11.09       6.06
H      16.90      11.06       7.98
H      13.62      11.55       5.25
H      15.21      11.60       3.32
H      16.91      10.84      14.16
H      18.50      10.81      16.09
H      15.17      10.99      18.83
H      13.60      11.01      16.89
H       4.59      11.06      22.11
H       1.24      11.23       3.39
H      20.88      11.28       3.40
H       3.59      10.86      16.04
H       5.23      10.95      14.15
H       8.47      11.27      16.94
H       6.86      11.20      18.84
H       5.17      11.20       7.97
H       3.57      11.27       6.04
H       6.89      10.82       3.31
H       8.46      10.77       5.25
H      22.06      17.53      11.00
H       3.38      20.86      11.19
H       3.38       1.22      11.26
H      15.99      18.57      10.90
H      14.09      16.94      10.89
H      16.87      13.67      10.94
H      18.79      15.28      10.94
H       7.93      16.91      11.02
H       6.01      18.52      10.97
H       3.25      15.21      11.25
H       5.18      13.62      11.29
H       0.02       4.64      11.23
H      18.71       1.30      11.08
H      18.70      20.95      11.02
H       6.09       3.59      11.32
H       7.99       5.21      11.22
H       5.22       8.48      10.95
H       3.30       6.88      11.04
H      14.17       5.26      10.66
H      16.10       3.67      10.62
H      18.77       6.90      11.64
H      16.84       8.48      11.63
H       9.06      13.04       9.10
H      13.01       9.13       9.07
H      13.02      13.05      13.02
C      10.96       7.87       7.90
C      11.11      14.32       7.93
C      11.10       1.24       2.84
C      11.17       0.02       3.52
C      11.24      20.91       2.84
C      11.19      20.90       1.41
C      11.09       0.02       0.70
C      11.06       1.26       1.41
C      10.98       2.47       0.68
C      10.94       2.48      21.43
C      11.30      19.71       3.58
C      11.33      18.70       4.25
C      11.31      17.59       5.13
C      11.49      16.26       4.69
C      11.43      15.20       5.59
C      11.19      15.44       6.95
C      11.03      16.76       7.40
C      11.08      17.82       6.51
C      11.06       2.44       3.58
C      11.03       3.46       4.25
C      10.96       6.74       6.92
C      10.92       6.97       5.54
C      10.93       5.91       4.64
C      11.00       4.58       5.12
C      11.04       4.36       6.52
C      11.02       5.42       7.40
C      10.99      14.32      14.19
C      11.13       7.86      14.19
C      11.04      20.92      19.27
C      10.96       0.03      18.59
C      10.96       1.25      19.27
C      10.98       1.27      20.70
C      11.04       0.03      21.40
C      11.08      20.91      20.70
C      11.15      19.69      21.43
C      11.22      19.68       0.67
C      10.95       2.45      18.53
C      10.97       3.47      17.85
C      11.00       4.58      16.98
C      11.22       5.90      17.44
C      11.25       6.96      16.55
C      11.09       6.73      15.17
C      10.88       5.43      14.71
C      10.83       4.36      15.59
C      11.04      19.72      18.53
C      11.04      18.70      17.86
C      11.01      15.44      15.17
C      10.99      15.20      16.56
C      11.01      16.26      17.45
C      11.04      17.59      16.99
C      11.06      17.82      15.59
C      11.04      16.76      14.70
C      14.19      10.99      14.28
C      14.18      11.21       7.84
C      19.23      11.03      20.92
C      18.57      11.12       0.01
C      19.26      11.18       1.24
C      20.69      11.15       1.25
C      21.39      11.06       0.00
C      20.66      11.00      20.90
C      21.39      10.90      19.68
C       0.64      10.89      19.67
C      18.52      11.26       2.43
C      17.84      11.31       3.45
C      16.96      11.34       4.56
C      17.44      11.20       5.89
C      16.54      11.18       6.95
C      15.16      11.29       6.72
C      14.69      11.46       5.41
C      15.58      11.48       4.34
C      18.49      10.97      19.72
C      17.81      10.93      18.70
C      15.16      10.93      15.41
C      16.54      10.87      15.19
C      17.43      10.86      16.26
C      16.94      10.91      17.59
C      15.55      10.96      17.80
C      14.67      10.97      16.73
C       7.89      10.99       7.85
C       7.93      11.13      14.31
C       2.84      11.09       1.21
C       3.50      11.06      22.11
C       2.81      11.00      20.89
C       1.39      10.98      20.88
C       0.69      11.06      22.13
C       1.41      11.11       1.23
C       0.68      11.19       2.45
C      21.43      11.21       2.46
C       3.55      10.98      19.69
C       4.24      10.99      18.67
C       5.12      11.03      17.57
C       4.66      10.96      16.24
C       5.57      11.01      15.18
C       6.94      11.12      15.43
C       7.40      11.19      16.76
C       6.51      11.14      17.81
C       3.59      11.11       2.41
C       4.26      11.10       3.43
C       6.91      10.98       6.72
C       5.53      11.12       6.95
C       4.65      11.16       5.87
C       5.12      11.06       4.55
C       6.51      10.91       4.34
C       7.39      10.88       5.41
C       7.79      14.20      11.15
C      14.26      14.23      10.96
C       1.19      19.28      11.08
C      22.07      18.62      11.03
C      20.85      19.31      11.02
C      20.86      20.74      11.06
C      22.10      21.43      11.11
C       1.22      20.71      11.12
C       2.45      21.43      11.18
C       2.44       0.68      11.22
C      19.65      18.58      10.98
C      18.62      17.91      10.95
C      17.52      17.03      10.92
C      16.18      17.50      10.90
C      15.13      16.60      10.90
C      15.37      15.22      10.92
C      16.70      14.75      10.93
C      17.76      15.64      10.93
C       2.38      18.53      11.08
C       3.39      17.84      11.09
C       6.66      15.17      11.16
C       6.90      16.55      11.07
C       5.83      17.44      11.04
C       4.50      16.97      11.11
C       4.28      15.57      11.20
C       5.35      14.69      11.22
C      14.27       7.95      11.11
C       7.83       7.93      11.04
C      20.89       2.89      11.16
C       0.01       3.55      11.21
C       1.23       2.86      11.22
C       1.23       1.43      11.20
C      22.10       0.74      11.15
C      20.86       1.46      11.13
C      19.64       0.74      11.09
C      19.65      21.49      11.06
C       2.44       3.58      11.24
C       3.46       4.25      11.23
C       4.57       5.13      11.19
C       5.90       4.66      11.24
C       6.96       5.56      11.18
C       6.72       6.94      11.08
C       5.39       7.41      11.03
C       4.33       6.52      11.08
C      19.70       3.64      11.14
C      18.68       4.31      11.13
C      15.39       6.97      11.14
C      15.18       5.61      10.87
C      16.25       4.72      10.85
C      17.56       5.18      11.13
C      17.76       6.55      11.42
C      16.69       7.43      11.41
O      12.07      12.13      10.02
O      12.45      12.49      12.46
O      10.98       9.07       7.47
O      11.09      13.12       7.50
O      10.97       7.52       9.14
O      11.05      14.67       9.17
O      11.00      13.12      14.62
O      11.13       9.05      14.62
O      10.99      14.66      12.96
O      11.12       7.51      12.95
O       9.62      12.48       9.66
O      14.62      11.02      13.09
O      14.61      11.16       9.04
O      12.95      11.03      14.63
O      12.94      11.18       7.49
O       7.46      11.01       9.05
O       7.49      11.12      13.11
O       9.12      11.01       7.50
O       9.16      11.14      14.66
O      12.45       9.68       9.64
O       8.99      14.64      11.13
O      13.05      14.65      10.98
O       7.45      12.96      11.14
O      14.61      12.99      11.00
O      13.07       7.51      11.07
O       9.03       7.50      11.03
O      14.61       9.18      11.12
O       7.48       9.16      11.03
O       9.65       9.67      12.48
O      10.00      10.04      10.03
O      10.00      12.12      12.10
O      12.09      10.05      12.09
