190

Al       7.81       4.77      14.25
Al       9.48       7.51      14.17
Al      11.01       4.92      14.20
Al      17.72      10.46       0.06
Al      14.51      10.40       0.02
Al      15.96       7.78       0.03
H      10.80       8.78      22.29
H      12.39       9.99      20.28
H      10.84       6.35      20.82
H      13.17       5.55      22.22
H      14.76       6.77      20.21
H      14.72       9.20      21.68
H      11.23       3.18      22.78
H      11.25       3.68      20.49
H      10.29       0.12      19.75
H      11.66       1.21      20.02
H      11.58       0.72      22.31
H      16.40      11.10      22.05
H       7.64       2.75      20.21
H       7.91       1.04      19.89
H       7.58       2.31      22.51
H       9.60       4.28      20.59
H       9.60       3.84      22.89
H       7.83       0.60      22.19
H       7.19       5.67      20.30
H       4.43       8.09      19.75
H       4.86       6.37      19.89
H       4.33       6.47      22.16
H      16.98       8.22      22.07
H       7.90       9.37      20.37
H       6.22       9.86      20.14
H       7.58       9.27      22.70
H       8.49       6.87      20.50
H       8.10       6.91      22.80
H       5.92       9.83      22.47
H      11.97       5.70       5.60
H      11.60       5.52       7.90
H      14.55       7.74       8.50
H      14.04       6.07       8.27
H      14.39       6.31       5.97
H      14.84       8.00       6.20
H      11.12       9.23       8.18
H      12.82       9.62       8.40
H      11.36       9.38       5.85
H      10.40       6.82       7.82
H      10.73       6.95       5.51
H      13.05       9.83       6.07
H       7.83       2.94       5.87
H       8.11       3.67       8.08
H       9.33       0.19       8.70
H       7.89       1.19       8.44
H       7.94       0.51       6.20
H      11.80       2.96       8.08
H      11.63       1.21       8.27
H      11.53       2.81       5.75
H       9.69       4.36       7.71
H       9.27       3.87       5.46
H      11.72       1.07       5.93
H       8.11       6.67       5.71
H       8.29       6.37       8.04
H       6.56       9.72       8.30
H       8.11       8.94       7.96
H       7.61       9.15       5.67
H       5.97       9.71       6.04
H       4.60       6.53       8.59
H      17.37       8.29       8.46
H       4.44       6.29       6.25
H       6.80       5.43       8.09
H       6.79       5.50       5.75
H      16.96       8.02       6.18
H       5.79       3.86      13.51
H       0.41       0.42      27.67
C       7.54       7.12      16.11
C      11.60       7.07      16.00
C       9.75       3.40      16.12
C       7.48       7.10      12.31
C      11.57       6.95      12.29
C       9.68       3.41      12.30
C      12.56       9.01      20.72
C      11.68       8.33      21.82
C      13.44       8.16      25.19
C      12.10       7.36      17.32
C      13.86       8.56      21.48
C      12.97       7.88      22.61
C      13.88       7.21      20.68
C      12.59       7.66      19.89
C      13.00       6.53      21.78
C      11.70       6.98      21.03
C      13.21       8.02      24.00
C      12.34       7.51      18.50
C      10.24       3.43      20.83
C      10.63       0.98      20.35
C      10.58       0.68      21.86
C       9.64       1.11      25.19
C       9.73       2.20      20.02
C      10.22       3.12      22.35
C       9.66       1.70      22.59
C       8.24       1.60      21.99
C       8.28       1.89      20.47
C       9.64       1.40      24.01
C       9.77       2.52      18.61
C       9.79       2.82      17.43
C       7.43       6.66      20.71
C       5.06       7.37      20.29
C       4.78       7.41      21.81
C       5.53       7.85      25.20
C       6.54       7.72      20.02
C       7.20       6.66      22.23
C       6.09       7.69      22.60
C       6.65       9.07      22.15
C       6.87       9.11      20.62
C       5.82       7.72      24.02
C       6.82       7.66      18.60
C       7.08       7.50      17.42
C      11.43       6.55       7.56
C      13.85       7.11       7.94
C      14.06       7.26       6.42
C      13.25       8.01       3.12
C      12.40       7.49       8.32
C      11.65       6.66       6.02
C      12.75       7.71       5.73
C      12.30       9.07       6.33
C      12.13       8.95       7.87
C      12.99       7.86       4.30
C      12.19       7.35       9.75
C      12.00       7.22      10.95
C       9.07       3.46       7.61
C       8.92       1.02       8.11
C       8.94       0.66       6.62
C       9.58       1.12       3.21
C       9.76       2.29       8.37
C       8.89       3.08       6.12
C       9.66       1.77       5.79
C      11.12       1.93       6.27
C      11.18       2.09       7.80
C       9.59       1.46       4.38
C       9.78       2.59       9.79
C       9.77       2.86      10.97
C       7.25       6.36       7.71
C       7.03       8.88       7.77
C       6.71       8.92       6.26
C       5.58       7.74       3.20
C       6.50       7.55       8.38
C       7.14       6.45       6.17
C       6.14       7.56       5.79
C       4.80       7.29       6.54
C       5.00       7.41       8.06
C       5.87       7.61       4.37
C       6.74       7.49       9.81
C       6.99       7.38      10.99
C       9.67       0.56      26.51
C      13.91       8.42      26.52
C       5.06       8.21      26.51
C       9.64       0.48       1.92
C      13.80       8.32       1.83
C       5.06       8.09       1.91
N       6.84       5.27      22.73
N      15.84      10.77       6.38
O       8.61       3.61      15.61
O       7.26       5.95      15.73
O       8.24       7.99      15.46
O      10.77       7.90      15.50
O      11.97       5.97      15.46
O      10.89       3.69      15.58
O       8.53       3.71      12.72
O       7.12       6.01      12.86
O       8.29       7.96      12.82
O      10.82       7.82      12.85
O      11.93       5.84      12.81
O      10.79       3.58      12.93
O       9.45       5.74      14.20
O       5.38       9.36      26.93
O      10.80       0.30      27.02
O       8.53       0.33      27.06
O      13.56       9.53      27.06
O      14.69       7.55      27.04
O       4.31       7.36      27.11
O       5.41       9.20       1.42
O      10.78       0.13       1.52
O       8.51       0.27       1.33
O      13.52       9.47       1.34
O      14.59       7.46       1.31
O       4.22       7.26       1.38
O      16.04       9.54       0.03
O       6.00       4.62      22.09
O       7.40       4.89      23.77
O      15.47      10.11       5.40
O      16.77      10.45       7.14
O       6.32       3.85      14.31
O       6.35      11.29       0.10
