225

Co       1.56       4.72       8.16
Co      -1.56      -4.71       8.16
Co       4.68       0.01      16.32
H      -0.71       1.69       3.78
H       5.52      -7.00      12.97
H       2.41       5.32      15.90
H       3.83       7.74      12.55
H      -2.40      16.43       3.35
H       0.71       4.11       0.43
H       6.05       1.99       8.20
H       2.93      -3.31      10.50
H      -0.18       1.33      13.95
H      -2.92       7.44       8.12
H       0.20      12.74       5.82
H       3.31       8.10       2.38
H       5.10       1.84      10.74
H       1.98      -1.04       9.36
H      -1.13      -0.79      12.55
H      -1.98       7.59       5.58
H       1.15      10.47       6.96
H       4.26      10.22       3.78
H       4.66       3.94      12.81
H       1.54      -0.30       6.51
H      -1.57      -3.63      13.33
H      -1.53       5.49       3.52
H       1.58       9.73       9.81
H       4.70      13.06       2.99
H      -4.12       2.72      14.92
H       2.11       2.14       6.51
H      -1.01      -4.85      11.22
H       7.25       6.71       1.41
H       1.01       7.29       9.81
H       4.13      14.28       5.11
H       2.27      -0.10      14.27
H      -0.84       2.99       9.28
H       5.39      -2.88       9.10
H       0.85       9.53       2.06
H       3.97       6.44       7.05
H      -2.26      12.31       7.22
H       1.58       1.00      12.13
H      -1.54       0.59       9.40
H       4.70      -1.57      11.12
H       1.54       8.43       4.19
H       4.66       8.84       6.92
H      -1.57      11.00       5.20
H       0.87       3.66      13.24
H       7.10       0.22       6.55
H       4.00      -3.86      12.87
H       2.25       5.78       3.09
H      -3.98       9.21       9.78
H      -0.87      13.29       3.45
H      -1.29       5.10      12.55
H       4.94      -1.10       5.63
H       1.83      -3.99      14.47
H       4.42       4.33       3.78
H      -1.81      10.53      10.69
H       1.30      13.42       1.86
H       4.40       1.64       4.59
H       1.28      -6.27      12.61
H      -1.83       4.64      15.45
H      -1.28       7.79      11.74
H       1.84      15.70       3.71
H       4.95       4.79       0.87
H       6.36       0.78       3.32
H       3.24      -6.94      13.99
H       0.13       6.17      15.34
H      -3.24       8.65      13.00
H      -0.12      16.37       2.33
H       2.99       3.26       0.99
H      -0.41       3.44       5.53
H       2.71      12.50      10.58
H       5.82      12.34       0.21
H       3.54       5.99      10.79
H       0.42      -3.07       5.74
H      -2.70      -2.91      16.12
H      -2.36       4.27       6.81
H       0.76      13.19       9.23
H       3.87      10.82       0.29
H       5.49       5.16       9.52
H       2.37      -3.76       7.10
H      -0.75      -1.39      16.03
C      -1.57       2.06       4.33
C       4.66      -6.70      12.37
C       1.55       4.65      15.94
C       4.69       7.37      11.99
C      -1.53      16.13       3.95
C       1.58       4.78       0.38
C       4.25       3.29       7.88
C       1.13      -4.24       9.54
C      -1.98       0.96      15.23
C      -1.13       6.14       8.44
C       2.00      13.67       6.79
C       5.11       8.47       1.09
C       5.17       2.46       8.62
C       2.05      -3.18       9.88
C      -1.06       0.73      14.15
C      -2.04       6.97       7.70
C       1.08      12.61       6.44
C       4.19       8.70       2.18
C       4.68       2.38       9.90
C       1.56      -2.04       9.32
C      -1.55      -0.33      13.44
C      -1.56       7.05       6.43
C       1.56      11.47       7.01
C       4.67       9.76       2.89
C       3.47       3.16       9.93
C       0.35      -2.40       8.63
C      -2.76      -0.74      14.09
C      -0.35       6.27       6.40
C       2.78      11.83       7.70
C       5.89      10.17       2.23
C       2.65       3.26      11.05
C      -0.47      -1.48       7.98
C      -3.58      -1.77      13.62
C       0.47       6.17       5.27
C       3.59      10.91       8.35
C       6.70      11.20       2.70
C       3.07       2.56      12.29
C      -0.05      -0.05       7.96
C       6.18      -2.50      12.39
C       0.06       6.87       4.03
C       3.18       9.48       8.36
C      -3.06      11.93       3.93
C       4.11       3.04      13.09
C       0.99       0.40       7.15
C      -2.12      -3.43      12.41
C      -0.99       6.39       3.23
C       2.13       9.03       9.18
C       5.25      12.86       3.92
C       4.43       2.37      14.27
C       1.31       1.75       7.14
C      -1.81      -4.11      11.24
C      -1.30       7.06       2.06
C       1.81       7.68       9.18
C       4.93      13.54       5.09
C       2.78       0.80      13.91
C      -0.34       2.23       8.68
C       5.89      -3.02      10.06
C       0.34       8.63       2.41
C       3.46       7.20       7.65
C      -2.77      12.45       6.27
C       2.40       1.41      12.72
C      -0.72       0.89       8.74
C       5.51      -2.29      11.18
C       0.73       8.02       3.60
C       3.85       8.54       7.58
C      -2.39      11.72       5.14
C       1.46       3.97      11.09
C      -1.66      -1.80       7.35
C       4.58      -2.16      14.22
C       1.67       5.46       5.24
C       4.79      11.23       8.98
C      -1.45      11.59       2.11
C       0.64       4.08      12.27
C       6.87      -0.83       6.66
C       3.76      -3.24      13.72
C       2.49       5.35       4.06
C      -3.74      10.26       9.66
C      -0.63      12.67       2.60
C      -0.45       4.82      11.93
C       5.78      -1.50       6.19
C       2.67      -3.31      14.53
C       3.58       4.61       4.40
C      -2.65      10.93      10.13
C       0.45      12.74       1.79
C      -0.30       5.17      10.53
C       5.93      -2.88       6.58
C       2.82      -2.28      15.53
C       3.42       4.26       5.79
C      -2.81      12.31       9.74
C       0.30      11.71       0.79
C       4.38       3.54       6.51
C       1.26      -5.55      10.00
C      -1.85       2.02      16.14
C      -1.25       5.89       9.81
C       1.87      14.98       6.32
C       4.98       7.41       0.19
C       5.56       3.01       5.78
C       2.44      -5.92      10.83
C      -0.67       2.92      16.04
C      -2.44       6.42      10.54
C       0.68      15.35       5.50
C       3.79       6.51       0.28
C       5.40       2.03       4.79
C       2.28      -6.29      12.17
C      -0.83       4.27      15.69
C      -2.28       7.40      11.54
C       0.84      15.72       4.15
C       3.95       5.16       0.63
C       6.50       1.56       4.07
C       3.38      -6.67      12.94
C       0.27       5.13      15.64
C      -3.38       7.87      12.25
C      -0.26      16.10       3.38
C       2.85       4.30       0.69
C      -1.40       3.04       5.32
C       4.83      -6.33      11.04
C       1.72       3.31      16.29
C       4.52       6.39      11.00
C      -1.71      15.76       5.29
C       1.40       6.12       0.03
C       6.85       3.50       6.04
C       0.62      12.91      10.27
C       3.73      11.87       0.01
C      -3.73       5.93      10.28
C       2.51      -3.48       6.05
C      -0.61      -2.44      16.31
N       3.21       3.72       8.69
N       0.09      -3.75       8.76
N      -3.02       0.04      15.20
N      -0.09       5.71       7.63
N       3.03      13.18       7.57
N       6.14       9.39       1.12
N       0.89       4.65      10.03
N       7.12      -3.06       7.28
N       4.00      -1.58      15.34
N       2.24       4.78       6.30
N      -3.99      12.49       9.04
N      -0.88      11.01       0.98
N       3.78       1.26      14.68
N       0.67       2.66       7.89
N       6.89      -3.91      10.08
N      -0.66       8.17       1.64
N       2.46       6.77       8.43
N      -3.77      13.34       6.25
