106

Zn       6.17       5.43      10.94
Zn       3.40       5.38      11.13
Zn       3.23       5.57      21.89
Zn       6.24       5.44       0.15
H       1.18       3.72       9.78
H       1.31       7.12      12.19
H       8.32       3.86       9.74
H       6.90       1.06      11.11
H       2.66       1.28      10.46
H       6.77       9.53      11.01
H       6.30       7.03       2.96
H       6.13       7.50       7.91
H       2.76       6.00      17.70
H       7.02       5.46      17.87
H       2.86       5.86      15.20
H       8.57       4.31       1.89
H       8.01       6.79      20.45
H       1.41       4.41       1.73
H       2.95       1.24       0.99
H       6.57       1.35      21.01
H       3.08       9.72       1.14
H       4.29       2.55       7.49
H       4.35       2.41       3.86
H       7.14       8.48       2.13
H       8.97       8.40       7.30
C       4.82       2.81      10.94
C       4.71       5.41       8.43
C       4.66       7.99      10.86
C       4.89       5.46      13.63
C       4.59       2.96      21.85
C       4.67       5.24       2.63
C       5.00       8.09       0.31
C       4.81       5.76      19.43
C       8.99       6.45      11.63
C       0.63       4.49      10.32
C       0.71       6.37      11.66
C       8.93       4.57      10.29
C       4.64       9.48      10.76
C       4.78       1.32      10.83
C       3.49      10.26      10.58
C       5.95       0.55      10.96
C       3.55       0.68      10.61
C       5.87      10.14      10.91
C       4.63       5.29       4.13
C       5.45       6.26       4.78
C       3.75       4.50       4.86
C       6.25       7.16       4.04
C       6.98       8.16       4.65
C       4.62       5.44       6.93
C       3.75       4.57       6.28
C       5.43       6.35       6.20
C       6.17       7.39       6.82
C       6.90       8.30       6.07
C       4.98       5.56      15.12
C       4.89       5.75      17.94
C       6.16       5.46      15.89
C       3.71       5.86      17.19
C       6.11       5.56      17.28
C       3.77       5.78      15.81
C       0.37       6.36      21.10
C       9.07       4.86       1.10
C       8.66       6.28      21.17
C       0.77       4.92       1.01
C       5.02       9.58       0.22
C       4.87       1.41       0.02
C       5.84      10.37      21.57
C       3.81       0.70       0.60
C       5.76       0.79      21.47
C       3.90      10.29       0.70
C       2.80       3.71       7.08
C       2.82       3.57       4.12
C       7.91       9.03       3.88
C       7.47       9.49       6.80
N       8.27       5.55      10.95
N       1.34       5.39      11.02
N       1.37       5.63       0.03
N       8.30       5.50       0.20
Cl       8.24       7.72      12.46
Cl       1.93       9.58      10.25
Cl       7.72       5.13      15.21
Cl       1.08       7.33      19.90
Cl       7.24       9.60      20.88
O       5.95       3.38      11.10
O       3.69       3.40      10.85
O       3.64       5.63       9.07
O       5.86       5.13       8.91
O       3.63       7.40      11.34
O       5.73       7.40      10.50
O       5.95       5.68      12.95
O       3.75       5.19      13.14
O       3.69       3.47       0.12
O       5.68       3.56      21.59
O       5.79       4.94       2.10
O       3.60       5.54       2.03
O       6.04       7.48       0.74
O       3.69       7.59      21.89
O       3.67       5.49      19.93
O       5.87       6.03      20.10
O       3.34       2.61       7.68
O       1.62       3.96       7.20
O       3.40       2.44       3.62
O       1.64       3.78       3.94
O       7.85       9.04       2.53
O       8.76       9.71       4.45
O       8.59       9.27       7.55
O       6.90      10.56       6.84
