168

Cu       6.08      24.58       2.26
Cu       3.47      23.26       3.61
Cu       4.62      26.01       4.65
Cu      16.93       4.60      12.09
Cu      14.69       6.37      10.61
Cu      15.24       3.40       9.73
Cu      11.04      14.45      26.38
Cu      12.16      12.27      24.37
Cu      11.89      15.28      23.51
Cu      23.46      17.96      17.40
Cu      24.61      20.21      19.31
Cu      24.05      17.34      20.41
H       6.80      22.32       0.16
H       3.02      20.81       1.64
H       4.64       1.11       5.38
H       8.51      26.61       1.76
H      26.03      22.68       5.93
H       2.44      26.77       6.80
H      17.77       6.59      14.40
H      14.49       8.80      12.64
H      19.04      27.90       9.10
H      19.06       2.26      12.56
H      12.89       7.30       8.10
H      13.03       3.01       7.52
H       9.78       9.00       0.04
H      11.64       9.63      26.12
H       9.87      17.71      23.00
H       9.09      16.84      27.17
H      13.88      11.13      21.93
H      14.16      15.40      21.25
H      23.51      19.51      14.62
H      24.22      22.75      17.40
H      21.81      15.10      20.94
H      21.61      15.49      16.62
H      26.51      21.37      21.58
H      26.25      17.20      22.74
H       4.15      23.60      28.05
H       7.21      23.36      28.32
H      18.43       9.20      15.18
H      15.39       9.62      15.35
H      10.56       7.08       1.74
H      10.72       8.75      28.73
H      24.26      21.29      12.81
H      23.47      23.54      14.76
H       7.56       2.02       1.70
H       7.26       2.03       4.77
H      20.53      13.05      16.78
H      19.57      13.79      19.61
H      21.96      26.71      12.69
H      21.54      26.62       9.64
H       8.13      19.40      27.11
H       7.45      18.86      24.15
H      25.28      22.75       8.57
H      24.96      25.81       8.29
H      14.81      11.04      19.37
H      16.14      13.76      19.93
H       2.71      21.63      24.10
H       3.76      18.74      23.87
H      10.80       3.39       6.29
H      11.73       6.24       5.58
C      17.55      10.56      16.61
C      18.71      12.23      17.62
C      16.64      11.67      18.38
C       5.28      22.09      26.99
C       6.42      20.32      26.12
C       4.43      20.95      25.21
C      23.77      23.28      12.13
C      22.96      25.27      11.40
C      24.16      23.95       9.99
C       9.87       5.13       2.35
C      10.18       4.33       4.45
C       8.79       3.24       3.01
C       5.87      22.12       0.68
C       4.93      21.09       0.48
C       3.92      21.37       1.42
C       7.02      27.67       4.49
C       5.98       0.72       3.61
C       7.90      26.86       2.62
C      26.47      23.67       5.98
C      26.18      24.74       6.84
C       2.31      25.77       6.40
C      16.96       6.98      13.79
C      16.19       8.14      13.97
C      15.27       8.09      12.91
C      17.29       1.33       9.96
C      20.51      28.15      10.79
C      18.38       2.07      11.74
C      13.06       6.23       8.14
C      12.55       5.21       7.32
C      13.11       4.04       7.87
C      11.20      12.15      28.18
C      11.26      10.75      28.04
C      11.50      10.56      26.67
C       9.85      17.32      24.01
C       9.05      17.73      25.10
C       9.47      16.90      26.16
C      13.77      12.21      21.92
C      14.43      13.17      21.12
C      13.93      14.40      21.59
C      23.73      20.14      15.47
C      23.83      21.55      15.54
C      24.06      21.81      16.90
C      21.93      15.36      19.89
C      21.27      14.84      18.76
C      21.85      15.54      17.68
C      26.26      20.32      21.72
C      26.81      19.39      22.61
C      26.15      18.19      22.29
C       5.16      23.19      27.94
C       6.22      23.74      28.56
C      17.47       9.55      15.56
C      16.31       9.14      15.01
C      10.12       6.16       1.35
C       9.88       5.99       0.03
C      23.92      22.26      13.16
C      23.72      22.52      14.47
C       7.77       2.23       2.75
C       7.04       1.68       3.75
C      19.89      13.10      17.66
C      20.20      13.88      18.72
C      22.11      26.43      11.64
C      21.42      27.03      10.65
C       7.58      19.42      26.17
C       7.98      18.70      25.10
C      24.91      23.76       8.75
C      25.29      24.81       7.98
C      15.55      11.84      19.34
C      15.42      12.96      20.10
C       3.36      20.77      24.23
C       3.13      19.60      23.60
C      10.92       4.31       5.71
C      11.70       5.31       6.16
N      18.69      11.27      16.67
N      17.73      12.45      18.51
N      16.48      10.73      17.43
N       6.37      21.30      27.05
N       5.48      20.10      25.18
N       4.28      21.96      26.09
N      23.16      24.44      12.44
N      23.46      25.09      10.16
N      24.26      22.97      10.91
N      10.42       5.31       3.56
N       9.32       3.31       4.25
N       9.10       4.07       2.00
N       4.23      22.48       2.12
N       5.43      22.96       1.64
N       6.78      26.17       2.89
N       6.22      26.68       4.04
N       3.07      25.34       5.38
N       2.71      24.04       5.10
N      15.48       6.99      12.16
N      16.53       6.29      12.72
N      17.36       2.91      11.48
N      16.68       2.44      10.38
N      13.89       4.34       8.91
N      13.85       5.71       9.10
N      11.59      11.75      26.05
N      11.39      12.74      26.99
N      10.44      16.07      25.73
N      10.69      16.35      24.40
N      13.04      14.19      22.57
N      12.95      12.83      22.79
N      24.09      20.65      17.59
N      23.87      19.62      16.70
N      22.77      16.41      18.14
N      22.83      16.28      19.51
N      25.26      18.40      21.30
N      25.35      19.73      20.93
