50

Al       0.01      25.18       8.72
Al       0.01      15.11       2.91
H       1.90       7.44       4.90
H       1.90      12.71       6.73
H       1.90      20.67       8.56
H       1.90      19.62       3.07
H       1.90      27.29      12.72
H       1.90      23.07      16.36
C       1.99      25.18      10.78
C       1.99       6.81       7.69
C       1.99      23.40       7.70
C       1.99      13.33       3.94
C       1.99      16.89       3.93
C       1.99      15.11       0.85
C       1.93       8.27       5.59
C       1.93      11.87       6.04
C       1.98       8.10       6.96
C       1.98      12.04       4.67
C       2.00      10.50       6.37
C       2.00       9.64       5.26
C       1.93      20.85       7.49
C       1.93      19.43       4.14
C       1.98      22.12       6.95
C       1.98      18.16       4.68
C       2.00      20.41       5.16
C       2.00      19.87       6.47
C       1.93      26.27      13.09
C       1.93      24.09      15.99
C       1.98      25.17      12.26
C       1.98      25.19      16.82
C       2.00      24.48      14.63
C       2.00      25.88      14.45
S       2.07       9.60       7.84
S       2.07      10.55       3.79
S       2.07      22.14       5.21
S       2.07      18.15       6.42
S       2.07      23.66      13.11
S       2.07      26.70      15.96
O       2.92      24.23       7.43
O       2.92      24.53      10.19
O       2.92       6.63       8.55
O       1.06      23.58       8.56
O       1.06       5.98       7.42
O       1.06      25.84      10.19
O       2.92      15.75       1.44
O       2.92      13.51       3.08
O       2.92      16.06       4.20
O       1.06      14.45       1.44
O       1.06      16.70       3.07
O       1.06      14.17       4.21
