276

Al       5.10      -1.28      11.68
Al       1.00       0.58      12.90
Al      -3.10       0.71      10.68
Al      -1.00      11.46       5.95
Al       3.10       9.60       4.73
Al       7.20       9.47       6.95
P       2.07      -0.95      10.26
P      -2.03      -0.82      13.33
P       6.17       1.78      11.68
P       2.04      11.13       7.37
P       6.14      11.00       4.30
P      -2.06       8.40       5.95
P      -0.47      14.55       6.90
P       3.63       8.88       1.58
P      -4.57       7.10       9.15
P       4.58      -4.37      10.73
P       0.47       1.30      16.05
P       8.68       3.08       8.48
P       7.27      -1.42       9.24
P       3.17      -1.46      14.24
P      -0.93       2.89      11.78
P      -3.17      11.60       8.39
P       0.93      11.64       3.39
P       5.04       7.29       5.85
H       6.64      -1.32      13.61
H       2.54       2.27      11.97
H      -1.56      -0.95       9.68
H      -2.53      11.50       4.02
H       1.57       7.91       5.66
H       5.67      11.13       7.95
H       7.71      -1.09      12.44
H       3.61       1.14      12.35
H      -0.49      -0.05      10.47
H      -3.60      11.26       5.19
H       0.50       9.04       5.28
H       4.60      10.23       7.16
H       2.17      -3.16      10.14
H      -1.93       0.18      15.30
H       6.27       2.98       9.83
H       1.94      13.34       7.49
H       6.04      10.00       2.33
H      -2.17       7.20       7.80
H       2.86      -5.07       8.94
H      -1.24       0.10      17.55
H       6.96       4.97       8.77
H       1.24      15.25       8.69
H       5.34      10.08       0.08
H      -2.86       5.21       8.86
H       6.85      -3.58       9.36
H       2.75      -0.28      16.05
H      -1.35       3.86       9.85
H      -2.75      13.76       8.27
H       1.35      10.46       1.58
H       5.45       6.32       7.78
H       0.98      -0.46       8.20
H      -3.12      -2.84      13.93
H       5.08       3.31      13.13
H       3.12      10.64       9.43
H       7.22      13.02       3.70
H      -0.98       6.87       4.50
H       2.20       0.75       8.56
H      -1.90      -3.14      12.70
H       6.30       2.39      14.00
H       1.90       9.43       9.07
H       6.01      13.32       4.93
H      -2.19       7.79       3.63
H       0.60      -2.14       7.43
H      -3.50      -2.67      15.77
H       4.70       4.81      12.06
H       3.50      12.32      10.20
H       7.60      12.85       1.86
H      -0.60       5.36       5.57
H       1.20      -3.79       7.40
H      -2.90      -1.87      17.22
H       5.30       5.67      10.64
H       2.90      13.97      10.23
H       7.00      12.05       0.41
H      -1.20       4.51       6.99
H       1.03      -2.89       5.89
H      -3.07      -3.63      17.19
H       5.13       6.52      12.18
H       3.07      13.07      11.74
H       7.17      13.81       0.44
H      -1.03       3.66       5.45
H       0.03      15.80       4.95
H       4.13       6.57       1.47
H      -4.07       8.17      11.21
H       4.07      -5.62      12.68
H      -0.03       3.61      16.16
H       8.17       2.01       6.42
H      -1.65      15.97       5.43
H       2.45       6.90       1.08
H       6.55       7.67      11.12
H       5.75      -5.79      12.20
H       1.65       3.28      16.55
H      -2.45       2.51       6.51
H       1.87      16.04       5.54
H       5.98       6.95       0.97
H      -2.23       7.54      11.13
H       2.23      -5.86      12.09
H      -1.87       3.23      16.66
H       6.33       2.64       6.50
H       7.01      -3.67       6.80
H       2.91      -2.45      17.41
H      -1.19       6.13      11.05
H      -2.91      13.85      10.83
H       1.19      12.63       0.22
H       5.30       4.05       6.58
H       6.84      -2.79       5.27
H       2.74      -4.21      17.41
H      -1.37       7.01      12.58
H      -2.73      12.97      12.36
H       1.37      14.39       0.22
H       5.47       3.17       5.05
H       7.00       0.12       7.45
H       2.90      -3.79      13.80
H      -1.21       3.67      14.01
H      -2.89      10.06      10.18
H       1.21      13.97       3.83
H       5.31       6.51       3.62
H       7.57      -1.44       6.87
H       3.47      -3.51      15.44
H      -0.64       4.95      12.95
H      -3.46      11.62      10.76
H       0.64      13.69       2.19
H       4.74       5.23       4.68
H       5.62       1.15       8.17
H       1.52      -3.68      12.56
H      -2.58       2.54      14.54
H      -1.52       9.03       9.46
H       2.58      13.86       5.07
H       6.69       7.64       3.09
H       4.33       0.90       9.31
H       0.22      -2.57      12.20
H      -3.88       1.67      13.75
H      -0.22       9.28       8.32
H       3.88      12.75       5.43
H       7.98       8.51       3.88
H       3.97       1.55       7.70
H      -0.13      -4.29      12.44
H      -4.23       2.74      15.12
H       0.13       8.63       9.93
H       4.23      14.47       5.19
H       8.34       7.44       2.51
C       3.04      -1.07       7.70
C      -1.07      -2.98      14.71
C      -5.17       4.05      12.85
C       1.07      11.25       9.93
C       5.17      13.15       2.92
C       9.27       6.13       4.78
C       2.74      -2.30       7.07
C      -1.36      -2.91      16.09
C       6.84       5.21      12.11
C       1.36      12.48      10.56
C       5.46      13.09       1.54
C      -2.74       4.97       5.52
C       3.80      -3.04       6.49
C      -0.30      -3.04      17.02
C      -4.40       6.08      11.75
C       0.30      13.22      11.14
C       4.40      13.22       0.61
C       8.51       4.10       5.88
C       5.14      -2.60       6.59
C       1.04      -3.17      16.58
C      -3.07       5.77      12.08
C      -1.03      12.78      11.04
C       3.07      13.35       1.05
C       7.17       4.41       5.55
C       5.41      -1.36       7.22
C       1.31      -3.24      15.20
C      -2.80       4.61      12.84
C      -1.30      11.54      10.41
C       2.80      13.42       2.43
C       6.90       5.57       4.79
C       4.35      -0.56       7.71
C       0.25      -3.22      14.27
C      -3.85       3.79      13.29
C      -0.25      10.74       9.92
C       3.85      13.40       3.36
C       7.96       6.39       4.34
C       2.02      -0.33       8.54
C      -2.08      -2.62      13.65
C       6.12       2.95      13.08
C       2.09      10.51       9.09
C       6.19      12.80       3.98
C      -2.01       7.23       4.55
C       1.33      -2.80       6.95
C      -2.78      -2.76      16.58
C       5.43       5.56      11.73
C       2.78      12.98      10.68
C       6.88      12.94       1.05
C      -1.32       4.62       5.90
C      -0.62      16.00       5.82
C       3.48       7.21       0.87
C      -4.72       7.32      10.95
C       4.72      -5.82      11.81
C       0.62       2.96      16.76
C       8.83       2.86       6.68
C       6.29      -3.39       6.02
C       2.19      -3.27      17.55
C      -1.91       6.66      11.69
C      -2.19      13.57      11.61
C       1.91      13.45       0.08
C       6.02       3.52       5.94
C       6.83      -0.96       7.53
C       2.73      -3.18      14.70
C      -1.37       4.14      13.04
C      -2.73      11.14      10.10
C       1.37      13.36       2.93
C       5.48       6.04       4.59
C       4.59       0.82       8.25
C       0.48      -3.45      12.80
C      -3.62       2.63      14.21
C      -0.48       9.36       9.38
C       3.62      13.63       4.83
C       7.72       7.55       3.41
O       6.83      -1.51      12.68
O       2.73       1.56      12.61
O      -1.37      -0.04       9.98
O      -2.73      11.69       4.95
O       1.37       8.62       5.02
O       5.47      10.22       7.65
O       1.47      -2.41      10.14
O      -2.63      -0.19      14.65
O       5.57       2.61      10.48
O       2.63      12.59       7.49
O       6.73      10.37       2.98
O      -1.47       7.57       7.15
O       3.47      -0.97      10.81
O      -0.63      -0.33      13.07
O       7.58       1.31      11.38
O       0.63      11.15       6.82
O       4.73      10.51       4.56
O      -3.47       8.87       6.25
O       1.08      -0.10      11.08
O      -3.02      -0.53      12.19
O       5.18       0.64      12.00
O       3.03      10.28       6.55
O       7.13      10.71       5.44
O      -1.08       9.54       5.63
O       0.93      14.51       7.52
O       5.03       9.44       1.30
O      -3.17       6.59       8.81
O       3.17      -4.33      10.11
O      -0.93       0.74      16.33
O       7.27       3.59       8.82
O      -1.54      14.75       8.07
O       2.57       9.79       0.82
O       6.67       5.99       8.74
O       5.64      -4.57       9.56
O       1.54       0.39      16.81
O      -2.56       4.19       8.89
O      -0.87      13.33       6.11
O       3.23       8.80       3.03
O       7.34       8.40       8.49
O       4.97      -3.15      11.52
O       0.87       1.38      14.60
O      -3.23       1.78       9.14
O       7.64      -2.96       9.22
O       3.54      -0.71      15.58
O      -0.56       3.67      10.45
O      -3.54      13.14       8.41
O       0.56      10.89       2.05
O       4.67       6.51       7.18
O       8.55      -0.71       9.65
O       4.45      -1.47      13.42
O       0.35       2.18      12.19
O      -4.44      10.89       7.98
O      -0.34      11.64       4.21
O       3.76       8.00       5.44
O       6.07      -1.13      10.12
O       1.97      -0.85      13.55
O      -2.13       1.98      11.59
O      -1.97      11.31       7.51
O       2.13      11.03       4.08
O       6.24       8.20       6.04
