416

Tb      11.50       4.84       7.14
Tb      17.00      14.72      22.91
Tb       9.69      14.94      22.91
Tb       4.19       5.05       7.14
Tb      15.05       5.17       8.02
Tb      13.44      15.06      22.04
Tb       6.14      14.61      22.04
Tb       7.74       4.72       8.02
H      17.71      18.02      25.89
H      10.78       8.13       4.17
H       3.48       1.76       4.17
H      10.41      11.65      25.89
H      18.54      19.54      27.68
H       9.96       9.65       2.38
H       2.65       0.23       2.38
H      11.23      10.12      27.68
H       7.79      19.67      25.77
H       6.09       9.78       4.29
H      13.39       0.11       4.29
H      15.10      10.00      25.77
H       6.96      18.13      24.02
H       6.92       8.25       6.04
H      14.23       1.64       6.04
H      14.27      11.53      24.02
H      14.14       2.84       0.81
H      14.36      12.73      29.25
H       7.05      16.94      29.25
H       6.83       7.05       0.81
H      12.64       3.43       2.70
H      15.86      13.32      27.35
H       8.55      16.35      27.35
H       5.33       6.46       2.70
H       1.27       5.49       4.62
H      12.61      15.38      25.43
H      19.92      14.29      25.43
H       8.58       4.40       4.62
H       2.76       4.93       2.76
H      11.13      14.82      27.30
H      18.43      14.85      27.30
H      10.06       4.96       2.76
H      10.42      17.03      25.50
H       3.46       7.14       4.55
H      10.77       2.75       4.55
H      17.73      12.64      25.50
H       9.80      18.81      27.09
H       4.08       8.92       2.96
H      11.39       0.97       2.96
H      17.10      10.86      27.09
H      12.57       1.72      25.17
H       1.31      11.61       4.88
H       8.62      18.06       4.88
H      19.88       8.17      25.17
H      13.20      19.69      23.58
H      15.29       9.80       6.48
H       7.98       0.09       6.48
H       5.90       9.98      23.58
H       6.83      17.19      19.66
H       7.05       7.30      10.40
H      14.36       2.59      10.40
H      14.14      12.48      19.66
H       6.37      19.07      18.12
H       7.52       9.18      11.94
H      14.82       0.71      11.94
H      13.67      10.60      18.12
H       8.88       1.86      20.50
H       5.00      11.75       9.56
H      12.31      17.91       9.56
H      16.18       8.03      20.50
H       9.37      19.73      22.03
H       4.51       9.84       8.03
H      11.82       0.05       8.03
H      16.67       9.94      22.03
H       6.09       5.56      12.76
H       7.80      15.45      17.29
H      15.10      14.22      17.29
H      13.39       4.33      12.76
H       4.78       5.92      10.70
H       9.10      15.81      19.36
H      16.41      13.86      19.36
H      12.09       3.97      10.70
H      16.33       3.29      12.16
H      12.16      13.18      17.89
H       4.86      16.49      17.89
H       9.03       6.60      12.16
H      17.63       2.93      14.25
H      10.87      12.82      15.81
H       3.56      16.85      15.81
H      10.32       6.96      14.25
H      15.33      19.44      16.78
H      13.17       9.55      13.28
H       5.86       0.34      13.28
H       8.02      10.23      16.78
H      14.34      17.73      18.30
H      14.16       7.84      11.76
H       6.85       2.05      11.76
H       7.03      11.94      18.30
H      17.77      18.00      20.86
H      10.72       8.11       9.20
H       3.42       1.78       9.20
H      10.47      11.67      20.86
H      18.78      19.71      19.36
H       9.72       9.82      10.70
H       2.41       0.07      10.70
H      11.47       9.96      19.36
H      20.20       0.99      28.57
H       8.30      10.88       1.48
H       0.99      18.79       1.48
H      12.89       8.90      28.57
H       3.10       3.88       0.78
H      10.78      13.77      29.28
H      18.09      15.90      29.28
H      10.41       6.01       0.78
H      11.61       2.16      27.41
H       2.28      12.05       2.65
H       9.58      17.62       2.65
H      18.91       7.73      27.41
H       8.11       2.47      18.23
H       5.77      12.35      11.83
H      13.08      17.31      11.83
H      15.42       7.42      18.23
H      16.93       1.14      16.34
H      11.57      11.03      13.71
H       4.26      18.64      13.71
H       9.62       8.75      16.34
H       6.39       4.41      14.73
H       7.49      14.30      15.32
H      14.80      15.37      15.32
H      13.69       5.48      14.73
C      19.14      16.97      23.84
C       9.36       7.08       6.21
C       2.05       2.81       6.21
C      11.83      12.70      23.84
C      19.59      17.98      24.84
C       8.90       8.09       5.22
C       1.60       1.80       5.22
C      12.29      11.69      24.84
C      18.74      18.39      25.87
C       9.76       8.50       4.19
C       2.45       1.39       4.19
C      11.43      11.28      25.87
C      19.20      19.24      26.86
C       9.29       9.35       3.19
C       1.99       0.54       3.19
C      11.89      10.43      26.86
C       5.92      19.70      26.85
C       7.96       9.81       3.21
C      15.27       0.08       3.21
C      13.23       9.97      26.85
C       6.77      19.32      25.79
C       7.11       9.43       4.26
C      14.42       0.46       4.26
C      14.08      10.35      25.79
C       6.29      18.46      24.81
C       7.59       8.57       5.24
C      14.90       1.32       5.24
C      13.60      11.21      24.81
C       7.52       1.31      28.23
C       6.36      11.20       1.83
C      13.67      18.47       1.83
C      14.82       8.58      28.23
C       9.71       1.71      27.89
C       4.17      11.60       2.17
C      11.48      18.07       2.17
C      17.01       8.18      27.89
C       8.64       2.69      29.62
C       5.24      12.58       0.44
C      12.55      17.09       0.44
C      15.95       7.20      29.62
C       1.24       3.84       1.64
C      12.65      13.73      28.41
C      19.95      15.93      28.41
C       8.54       6.05       1.64
C      14.50       3.44       1.63
C      14.00      13.32      28.43
C       6.69      16.34      28.43
C       7.19       6.45       1.63
C      13.67       3.77       2.69
C      14.82      13.66      27.36
C       7.52      16.01      27.36
C       6.37       6.12       2.69
C      14.15       4.51       3.79
C      14.35      14.40      26.27
C       7.04      15.27      26.27
C       6.84       5.38       3.79
C       0.87       4.94       3.78
C      13.01      14.82      26.28
C      20.32      14.84      26.28
C       8.18       4.95       3.78
C       1.71       4.61       2.72
C      12.17      14.50      27.33
C      19.48      15.16      27.33
C       9.02       5.27       2.72
C      13.25       4.74       4.93
C      15.24      14.63      25.12
C       7.94      15.04      25.12
C       5.95       5.15       4.93
C      12.26      17.17      23.51
C       1.62       7.28       6.55
C       8.93       2.61       6.55
C      19.57      12.50      23.51
C      11.85      18.24      24.44
C       2.03       8.35       5.62
C       9.34       1.54       5.62
C      19.16      11.43      24.44
C      10.90      18.01      25.43
C       2.99       8.12       4.63
C      10.29       1.77       4.63
C      18.20      11.66      25.43
C      10.54      19.01      26.33
C       3.34       9.12       3.73
C      10.65       0.77       3.73
C      17.85      10.66      26.33
C      11.14       0.50      26.24
C       2.74      10.39       3.81
C      10.04      19.28       3.81
C      18.45       9.39      26.24
C      12.11       0.74      25.25
C       1.78      10.63       4.81
C       9.08      19.04       4.81
C      19.41       9.15      25.25
C      12.46      19.51      24.35
C       1.42       9.62       5.70
C       8.73       0.27       5.70
C      19.76      10.16      24.35
C       8.45      17.20      21.82
C       5.44       7.31       8.24
C      12.74       2.58       8.24
C      15.75      12.47      21.82
C       8.13      18.34      20.94
C       5.75       8.45       9.12
C      13.06       1.44       9.12
C      15.44      11.33      20.94
C       7.29      18.16      19.83
C       6.60       8.27      10.22
C      13.90       1.62      10.22
C      14.59      11.51      19.83
C       7.02      19.22      18.97
C       6.86       9.33      11.08
C      14.17       0.56      11.08
C      14.33      10.45      18.97
C       7.59       0.70      19.21
C       6.29      10.59      10.85
C      13.60      19.08      10.85
C      14.90       9.19      19.21
C       8.44       0.88      20.31
C       5.44      10.77       9.75
C      12.75      18.90       9.75
C      15.75       9.01      20.31
C       8.71      19.60      21.17
C       5.17       9.71       8.89
C      12.48       0.18       8.89
C      16.02      10.07      21.17
C       6.28       2.00      17.53
C       7.60      11.89      12.53
C      14.91      17.78      12.53
C      13.59       7.89      17.53
C       5.33       3.07      15.79
C       8.55      12.96      14.27
C      15.86      16.71      14.27
C      12.64       6.82      15.79
C       4.64       4.20      13.65
C       9.24      14.09      16.41
C      16.55      15.58      16.41
C      11.95       5.69      13.65
C       5.11       5.07      12.65
C       8.77      14.96      17.41
C      16.07      14.70      17.41
C      12.42       4.82      12.65
C       4.38       5.28      11.48
C       9.50      15.17      18.58
C      16.81      14.50      18.58
C      11.69       4.61      11.48
C       3.16       4.62      11.29
C      10.72      14.51      18.76
C      18.03      15.16      18.76
C      10.46       5.27      11.29
C      17.28       3.80      12.32
C      11.21      13.69      17.74
C       3.91      15.98      17.74
C       9.98       6.09      12.32
C       3.39       3.59      13.48
C      10.50      13.48      16.58
C      17.80      16.19      16.58
C      10.69       6.30      13.48
C       2.37       4.69      10.05
C      11.51      14.58      20.01
C      18.82      15.09      20.01
C       9.68       5.20      10.05
C       4.16       1.52      16.95
C       9.72      11.41      13.11
C      17.03      18.25      13.11
C      11.47       8.36      16.95
C      17.12      19.69      17.97
C      11.38       9.80      12.08
C       4.07       0.09      12.08
C       9.81       9.98      17.97
C      15.86      19.13      17.68
C      12.64       9.24      12.38
C       5.33       0.65      12.38
C       8.55      10.54      17.68
C      15.31      18.17      18.52
C      13.19       8.28      11.54
C       5.88       1.61      11.54
C       8.00      11.50      18.52
C      15.99      17.76      19.67
C      12.50       7.87      10.39
C       5.20       2.02      10.39
C       8.69      11.91      19.67
C      17.24      18.32      19.96
C      11.26       8.43      10.10
C       3.95       1.46      10.10
C       9.93      11.35      19.96
C      17.81      19.28      19.13
C      10.69       9.39      10.93
C       3.38       0.50      10.93
C      10.50      10.39      19.13
C      15.37      16.73      20.53
C      13.12       6.84       9.52
C       5.82       3.05       9.52
C       8.07      12.94      20.53
N       6.31       0.75      27.91
N       7.57      10.64       2.15
N      14.88      19.03       2.15
N      13.62       9.14      27.91
N       8.60       1.06      27.48
N       5.28      10.95       2.57
N      12.59      18.72       2.57
N      15.91       8.83      27.48
N       9.80       2.56      28.92
N       4.09      12.45       1.13
N      11.39      17.22       1.13
N      17.10       7.33      28.92
N       7.48       2.10      29.33
N       6.41      11.99       0.73
N      13.71      17.68       0.73
N      14.78       7.79      29.33
N       2.16       3.52       0.65
N      11.72      13.41      29.41
N      19.03      16.26      29.41
N       9.47       6.37       0.65
N      10.86       1.51      27.17
N       3.02      11.40       2.89
N      10.33      18.27       2.89
N      18.17       8.38      27.17
N       7.37       1.78      18.33
N       6.51      11.67      11.72
N      13.82      18.00      11.72
N      14.68       8.11      18.33
N       6.42       2.93      16.58
N       7.46      12.82      13.48
N      14.77      16.84      13.48
N      13.73       6.95      16.58
N       4.18       2.41      15.92
N       9.70      12.30      14.13
N      17.01      17.37      14.13
N      11.49       7.48      15.92
N       5.17       1.27      17.78
N       8.71      11.16      12.28
N      16.01      18.51      12.28
N      12.48       8.62      17.78
N      17.58       0.87      17.07
N      10.91      10.76      12.99
N       3.61      18.91      12.99
N      10.28       9.02      17.07
N       5.47       3.97      14.75
N       8.41      13.86      15.30
N      15.72      15.81      15.30
N      12.78       5.92      14.75
O       5.37      16.53      22.99
O       8.51       6.64       7.06
O      15.82       3.25       7.06
O      12.68      13.14      22.99
O      13.71       5.19       6.07
O      14.79      15.08      23.99
O       7.48      14.59      23.99
O       6.40       4.70       6.07
O       7.95      16.03      21.53
O       5.93       6.14       8.52
O      13.23       3.75       8.52
O      15.26      13.64      21.53
O      14.23      16.27      20.21
O      14.27       6.38       9.85
O       6.96       3.50       9.85
O       6.92      13.39      20.21
O      15.86       4.10       9.98
O      12.63      13.99      20.08
O       5.32      15.68      20.08
O       8.56       5.79       9.98
O      13.18      17.36      22.66
O      15.31       7.47       7.40
O       8.01       2.42       7.40
O       5.87      12.31      22.66
O      11.72      15.98      23.61
O       2.16       6.09       6.45
O       9.47       3.80       6.45
O      19.03      13.69      23.61
O      17.93      16.57      23.89
O      10.57       6.68       6.16
O       3.26       3.21       6.16
O      10.62      13.10      23.89
O       2.80       5.35       9.01
O      11.09      15.24      21.05
O      18.39      14.42      21.05
O      10.10       4.53       9.01
O       9.25      17.32      22.80
O       4.64       7.43       7.26
O      11.94       2.46       7.26
O      16.55      12.35      22.80
O      15.99      16.32      21.59
O      12.51       6.43       8.46
O       5.20       3.46       8.46
O       8.68      13.35      21.59
O      12.01       4.48       4.84
O      16.48      14.37      25.22
O       9.18      15.30      25.22
O       4.70       5.41       4.84
