244

Zn      23.15      18.67      16.97
Zn      12.99       2.04      14.27
Zn      19.97      18.59      16.79
Zn      12.90       3.83      16.90
Zn      19.94       8.27      23.66
Zn      23.20       8.33      23.83
Zn      21.44       7.33      26.30
Zn      21.64       5.57      23.60
Zn      12.87      14.16      10.10
Zn      13.04      12.36       7.42
Zn      11.33      15.06       7.45
Zn      14.59      15.14       7.62
Zn      22.28       7.79       0.58
Zn      23.83      10.62       0.72
Zn       5.90       7.88       0.75
Zn      10.64      12.88      30.48
C      24.18      18.23      14.28
C      19.17      18.12      14.05
C      21.56      16.61      18.24
C      10.32       3.33      18.19
C      15.34       3.46      18.42
C      12.97       4.95      14.24
C      21.58      10.33      22.41
C      23.90       8.83      26.60
C      18.86       8.69      26.32
C      21.52       4.43      26.27
C      19.21       5.95      22.08
C      24.24       6.06      22.38
C      12.97      11.25      10.10
C      10.60      12.71       5.89
C      10.26      15.46      10.11
C      12.97      17.13       6.21
C      15.31      15.67      10.37
C      15.62      12.87       6.16
C      21.26      10.11       2.00
C       6.73      10.26       2.20
C       4.31       5.81       2.02
C      13.21      11.47      30.47
C      27.76      11.32      30.26
C      30.15      15.76      30.47
C      16.33       4.09      19.36
C      18.22       5.31      21.15
C      16.17       5.42      19.81
C      18.37       3.99      20.70
C      17.09       6.01      20.67
C      17.45       3.40      19.83
C      18.18      17.50      13.11
C      16.29      16.30      11.31
C      17.06      16.80      13.58
C      17.41      17.01      10.84
C      16.14      16.21      12.71
C      18.34      17.59      11.72
C      20.45      14.55      19.43
C      22.70      12.28      21.07
C      21.52      15.33      18.99
C      21.63      11.52      21.53
C      22.27      13.42      20.36
C      20.88      13.47      20.24
C      12.97       6.31      12.00
C      12.82       9.89      12.32
C      12.91       6.16      13.39
C      12.90      10.03      10.94
C      12.91       8.53      12.72
C      12.99       7.67      11.62
C      25.46      17.78      12.06
C      28.62      16.07      12.36
C      25.30      17.77      13.44
C      28.77      16.05      10.97
C      27.38      16.64      12.75
C      26.64      17.10      11.65
C       9.03       5.21      19.49
C       5.88       4.24      20.94
C       9.20       3.93      18.95
C       5.73       5.51      21.50
C       7.12       4.11      20.26
C       7.85       5.31      20.26
C      24.88       9.46      27.54
C      26.78      10.68      29.33
C      24.74       9.38      28.94
C      26.92      10.76      27.93
C      25.66       9.98      29.80
C      26.00      10.18      27.06
C      17.65       9.30      28.55
C      14.50      11.02      28.23
C      17.81       9.29      27.17
C      14.33      11.01      29.62
C      15.68      10.34      27.84
C      16.41       9.88      28.94
C      30.31      19.44      26.66
C      30.17      18.35      30.08
C      30.23      20.77      27.06
C      30.23      17.01      29.68
C      30.14      19.23      28.98
C      30.23      18.55      27.75
C       9.62      12.09       4.94
C       7.72      10.89       3.13
C       8.49      12.79       4.47
C       8.86      10.19       3.59
C       7.57      12.21       3.60
C       9.77      10.77       4.47
C      16.81      11.05       4.71
C      19.97      11.99       3.27
C      16.66      12.32       5.26
C      20.13      10.71       2.74
C      18.79      12.10       4.04
C      18.05      10.91       4.03
C       5.45       1.49       4.86
C       3.20       3.76       3.21
C       4.38       0.73       5.32
C       4.27       4.53       2.77
C       3.63       2.68       4.03
C       5.03       2.63       4.15
S      23.05      14.72      19.54
S      20.10      12.18      21.05
S      12.86       7.69      14.21
S      13.04       8.51      10.12
S      26.61      16.96      14.25
S      27.42      16.77      10.16
S       7.89       2.87      19.37
S       7.07       6.55      21.15
S      16.46      10.02      26.35
S      15.63      10.20      30.43
S      30.10      20.93      28.78
S      30.27      16.84      27.96
S      18.01      13.36       4.92
S      18.82       9.66       3.16
S       2.85       1.39       4.85
S       5.80       3.92       3.33
N      19.04      14.68      19.08
N      24.12      11.98      21.18
N      12.89       5.28      10.98
N      12.57      10.93      13.32
N      24.64      18.46      11.06
N      10.02      15.68      13.38
N       9.86       6.38      19.25
N       4.92       3.15      20.90
N      18.60       8.90      29.58
N      13.68      11.70      27.24
N      30.55      18.93      25.32
N      30.25      18.89      31.43
N      15.85       9.96       4.68
N      20.80      13.17       3.03
N       6.87       1.19       4.97
N      21.36       3.89       2.86
O      21.57      19.58      16.24
O      24.46      18.37      15.53
O      19.89      19.07      13.58
O      20.50      17.31      18.20
O      23.05      18.40      13.73
O      22.70      16.91      17.74
O      19.21      17.66      15.24
O      10.03       2.24      17.59
O      14.63       4.25      17.73
O      11.44       3.91      18.23
O      23.93      19.78      18.40
O      13.43       3.88      13.73
O      12.59       5.13      15.45
O      21.55       7.39      24.34
O      20.47       9.70      22.40
O      24.32       8.57      25.43
O      19.60       7.79      26.83
O      22.61      10.08      23.12
O      18.89       9.11      25.11
O      22.74       8.60      27.06
O      21.79       5.49      26.93
O      20.37       5.43      22.11
O      21.17       4.34      25.06
O      18.79       6.94      22.77
O      24.23       7.34      22.48
O      23.48       5.25      22.99
O      12.94      14.19       8.13
O      13.33      12.33      10.65
O      11.75      12.17       5.96
O      10.27      15.89       8.90
O      12.70      11.06       8.86
O      11.02      14.59      10.62
O      10.20      13.73       6.54
O      11.86      16.50       6.20
O      15.73      15.40       9.20
O      13.99      16.88       6.92
O      14.14      15.46      10.82
O      14.88      12.05       6.79
O      15.61      14.15       6.25
O       4.32       8.78       0.02
O      20.97       9.02       1.38
O       6.01      11.05       1.52
O       5.45       6.11       1.51
O      22.39      10.67       2.07
O      22.81       6.51       1.97
O       6.69       8.99       2.18
O      13.49      11.59      31.71
O      28.47      12.27      29.78
O      12.09      11.66      29.91
O      27.82      10.86      31.45
O      29.70      15.82      31.65
O      30.52      14.70      29.84
O      18.25      14.16      19.89
O      18.73      15.22      18.01
O      24.87      12.97      21.15
O      24.49      10.80      21.24
O      13.36       5.61       9.87
O      12.34       4.20      11.23
O      13.00      10.67      14.46
O      11.93      11.93      13.00
O      24.69      17.97       9.92
O      15.39       1.88      11.38
O       9.52      15.40      14.49
O      11.23      15.71      13.12
O       9.83       7.23      20.16
O      10.47       6.49      18.19
O      14.06      19.61      20.72
O      23.28       3.39      20.97
O      18.10       8.61      30.68
O      19.81       8.92      29.32
O      13.73      11.20      26.09
O      13.06      12.71      27.55
O      30.11      17.78      25.11
O      31.19      19.61      24.51
O      29.79      20.04      31.56
O      30.81      18.24      32.32
O      16.35       8.83       4.52
O      14.65      10.21       4.76
O      20.76      14.03       3.93
O      21.42      13.26       1.97
O       7.62       2.18       4.91
O      15.88      17.60       5.04
O      20.56       3.37       3.68
O      21.04       4.42       1.79
F      15.12       6.17      19.45
F      19.39       3.22      21.11
F      16.87       7.29      21.01
F      26.35      19.73      19.45
F      16.81      16.68      14.89
F      17.64      17.18       9.53
F      15.12      15.54      13.26
F      19.39      18.21      11.16
F      23.73       8.71      29.50
F      27.97      11.39      27.37
F      25.41       9.86      31.12
F      26.22      10.34      25.75
F       8.25      14.06       4.83
F       9.12       8.94       3.18
F      26.07      12.95       3.25
F      10.80      10.00       4.87
