156

Ti       2.00       0.00       7.61
Ti       5.74      16.17      22.24
Ti       2.35      16.17      22.52
Ti       5.38       0.00       7.33
H       3.35       4.71       1.26
H       3.71       8.12       4.63
H       3.65       4.69      28.63
H       4.02       8.06      25.22
H       4.37      11.47      28.60
H       4.08      11.48       1.22
H       6.95       4.70      16.15
H       0.64       8.08      19.53
H       6.85       4.70      13.71
H       7.10       8.10      10.31
H       0.81      11.48      13.69
H       0.90      11.47      16.14
H       2.13       4.85      12.08
H       2.06       2.75      10.73
H       5.18       6.10      10.31
H       5.08       3.96       9.03
H       1.70       3.97       5.96
H       5.43       2.77       4.19
H       5.46       4.87       2.83
H       1.78       6.12       4.67
H       2.16      13.48       4.30
H       1.98      11.38       2.95
H       5.78      10.07       4.49
H       6.00      12.22       5.75
H       5.57      13.46      10.66
H       2.41      10.06      10.41
H       2.62      12.22       9.15
H       5.41      11.37      12.01
H       5.12       3.96      20.69
H       2.17       2.71      19.20
H       5.33       6.11      19.43
H       2.33       4.81      17.84
H       2.56      10.08      19.53
H       2.66      12.22      20.82
H       5.67      13.42      19.12
H       5.61      11.32      17.76
H       2.31      13.41      25.65
H       2.26      11.31      27.01
H       6.04      12.20      23.90
H       5.96      10.06      25.19
H       5.57       2.69      25.56
H       1.73       3.95      24.10
H       1.95       6.10      25.36
H       5.75       4.79      26.91
C       3.51       1.97       5.91
C       3.49       5.64       0.71
C       3.72       8.09       0.73
C       3.65       6.88       2.87
C       3.64       6.86       1.45
C       3.71       8.11       3.54
C       2.53       4.19       5.28
C       2.57       5.38       4.56
C       4.64       4.67       3.53
C       4.63       3.50       4.28
C       3.52       1.94      23.99
C       3.78       5.63      29.17
C       4.01       8.08      29.12
C       3.95       6.85      27.00
C       3.93       6.84      28.42
C       4.02       8.07      26.32
C       4.23      14.20      23.94
C       4.24      10.53      29.14
C       4.08       9.29      26.98
C       4.09       9.32      28.40
C       4.18      12.93      24.70
C       4.11      10.55      26.19
C       3.64       3.20      24.76
C       2.62       4.16      24.70
C       2.74       5.35      25.41
C       3.86       5.59      26.22
C       4.88       4.61      26.28
C       4.78       3.44      25.54
C       4.22      14.24       5.87
C       3.95      10.54       0.68
C       3.77       9.33       2.85
C       3.80       9.33       1.44
C       4.09      12.97       5.10
C       5.12      12.02       5.15
C       4.99      10.82       4.44
C       3.87      10.59       3.63
C       2.85      11.56       3.57
C       2.95      12.73       4.32
C       3.55       3.24       5.14
C       3.62       5.63       3.66
C       5.21      11.99      24.57
C       5.16      10.80      25.29
C       3.09      11.50      26.32
C       3.11      12.67      25.57
C       6.90       1.95      20.79
C       7.06       5.64      15.61
C       0.51       8.09      15.64
C       0.53       6.86      17.77
C       0.46       6.85      16.35
C       0.61       8.08      18.44
C       7.02       3.21      20.02
C       6.00       4.17      20.08
C       6.12       5.36      19.37
C       0.45       5.60      18.55
C       1.47       4.63      18.48
C       1.38       3.46      19.22
C       6.89       1.96       9.04
C       7.00       5.64      14.25
C       7.23       8.09      14.21
C       7.10       6.87      12.08
C       7.13       6.85      13.50
C       7.13       8.10      11.40
C       7.04       5.62      11.29
C       0.83      14.23       9.06
C       0.69      10.54      14.24
C       7.22       9.32      12.08
C       0.51       9.33      13.50
C       6.95       3.23       9.81
C       5.92       4.18       9.69
C       5.98       5.37      10.41
C       1.29       4.66      11.41
C       1.26       3.49      10.66
C       0.84      14.22      20.81
C       0.74      10.54      15.60
C       0.64       9.30      17.77
C       0.62       9.32      16.35
C       0.78      12.95      20.04
C       1.82      12.00      20.16
C       1.76      10.81      19.44
C       0.69      10.56      18.55
C       6.44      11.51      18.44
C       6.47      12.68      19.19
C       0.71      12.96       9.83
C       1.74      12.01       9.76
C       1.62      10.81      10.47
C       7.29      10.58      11.30
C       6.28      11.55      11.37
C       6.36      12.72      10.63
O       4.25      16.17       8.26
O       2.40       1.64       6.44
O       3.49       0.01      21.59
O       4.59       1.28      23.76
O       3.15      14.89      23.87
O       2.35       1.60      23.61
O       5.39      14.57       6.25
O       4.59       1.28       5.98
O       3.15      14.90       6.10
O       5.34      14.54      23.41
O       7.53      16.17      23.17
O       5.74       1.61      21.17
O       0.86      16.18       6.68
O       1.20       1.27       8.97
O       6.54      14.89       8.84
O       5.78       1.63       8.52
O       1.95      14.55      21.33
O       1.20       1.29      21.02
O       6.53      14.91      20.88
O       2.00      14.57       8.68
