166

Pr       3.58       7.59       4.38
Pr       3.58       0.00       8.76
Pr      10.74       0.00       8.76
Pr      10.74       7.59       4.38
Cu       0.00       3.79       6.57
Cu      14.32      11.38       6.57
Cu       0.00       7.59       0.00
Cu       7.16      11.38       6.57
Cu       7.16       3.79       6.57
Cu       7.16       0.00      13.14
H      12.11      -3.31      11.17
H      10.74      -2.58      12.09
H      12.11       3.74      10.42
H      10.74       4.17       9.33
H      12.11      -0.43       4.69
H      10.74      -1.59       4.87
H      12.11      10.90       1.97
H      10.74      10.16       1.06
H      12.11       3.85       2.72
H      10.74       3.42       3.81
H      12.11       8.02       8.45
H      10.74       9.18       8.27
H       9.37       4.28       1.97
H      10.74       5.01       1.06
H       9.37      11.33       2.72
H      10.74      11.75       3.81
H       9.37       7.16       8.45
H      10.74       6.00       8.27
H       9.37       3.31      11.17
H      10.74       2.58      12.09
H       9.37      -3.74      10.42
H      10.74      -4.17       9.33
H       9.37       0.43       4.69
H      10.74       1.59       4.87
H       2.21      10.90       1.97
H       3.58      10.16       1.06
H       2.21       3.85       2.72
H       3.58       3.42       3.81
H       2.21       8.02       8.45
H       3.58       9.18       8.27
H       2.21      -3.31      11.17
H       3.58      -2.58      12.09
H       2.21       3.74      10.42
H       3.58       4.17       9.33
H       2.21      -0.43       4.69
H       3.58      -1.59       4.87
H       4.95       3.31      11.17
H       3.58       2.58      12.09
H       4.95      -3.74      10.42
H       3.58      -4.17       9.33
H       4.95       0.43       4.69
H       3.58       1.59       4.87
H       4.95       4.28       1.97
H       3.58       5.01       1.06
H       4.95      11.33       2.72
H       3.58      11.75       3.81
H       4.95       7.16       8.45
H       3.58       6.00       8.27
C       5.15      10.59       4.72
C      10.03      -3.37       9.62
C       5.15       6.38       1.62
C      10.03       2.43      11.25
C       5.15       5.80       6.81
C      10.03       0.94       5.42
C       5.15      -3.00       8.42
C      10.03      10.96       3.53
C       5.15       1.20      11.53
C      10.03       5.16       1.89
C       5.15       1.79       6.34
C      10.03       6.64       7.73
C       2.01       3.00       8.42
C      11.45       4.22       3.53
C       2.01      -1.20      11.53
C      11.45      10.01       1.89
C       2.01      -1.79       6.34
C      11.45       8.53       7.73
C       2.01       4.59       4.72
C      11.45       3.37       9.62
C       2.01       8.79       1.62
C      11.45      -2.43      11.25
C       2.01       9.38       6.81
C      11.45      -0.94       5.42
C       9.17      -3.00       8.42
C       4.29      10.96       3.53
C       9.17       1.20      11.53
C       4.29       5.16       1.89
C       9.17       1.79       6.34
C       4.29       6.64       7.73
C       9.17      10.59       4.72
C       4.29      -3.37       9.62
C       9.17       6.38       1.62
C       4.29       2.43      11.25
C       9.17       5.80       6.81
C       4.29       0.94       5.42
C      12.31       4.59       4.72
C       2.87       3.37       9.62
C      12.31       8.79       1.62
C       2.87      -2.43      11.25
C      12.31       9.38       6.81
C       2.87      -0.94       5.42
C      12.31       3.00       8.42
C       2.87       4.22       3.53
C      12.31      -1.20      11.53
C       2.87      10.01       1.89
C      12.31      -1.79       6.34
C       2.87       8.53       7.73
O       5.16       9.40       5.14
O       5.81      11.58       5.18
O       5.16       7.34       2.44
O       5.81       6.29       0.53
O       5.16       6.03       5.57
O       5.81       4.90       7.44
O       5.16      -1.81       8.01
O       5.81      -3.99       7.96
O       5.16       0.25      10.71
O       5.81       1.30      12.62
O       5.16       1.56       7.57
O       5.81       2.69       5.71
O       2.00       1.81       8.01
O       1.35       3.99       7.96
O       2.00      -0.25      10.71
O       1.35      -1.30      12.62
O       2.00      -1.56       7.57
O       1.35      -2.69       5.71
O       2.00       5.78       5.14
O       1.35       3.60       5.18
O       2.00       7.84       2.44
O       1.35       8.89       0.53
O       2.00       9.15       5.57
O       1.35      10.27       7.44
O       9.16      -1.81       8.01
O       8.51      -3.99       7.96
O       9.16       0.25      10.71
O       8.51       1.30      12.62
O       9.16       1.56       7.57
O       8.51       2.69       5.71
O       9.16       9.40       5.14
O       8.51      11.58       5.18
O       9.16       7.34       2.44
O       8.51       6.29       0.53
O       9.16       6.03       5.57
O       8.51       4.90       7.44
O      12.32       5.78       5.14
O      12.97       3.60       5.18
O      12.32       7.84       2.44
O      12.97       8.89       0.53
O      12.32       9.15       5.57
O      12.97      10.27       7.44
O      12.32       1.81       8.01
O      12.97       3.99       7.96
O      12.32      -0.25      10.71
O      12.97      -1.30      12.62
O      12.32      -1.56       7.57
O      12.97      -2.69       5.71
O      10.74      -2.22      10.04
O      10.74       2.22      10.04
O      10.74       0.00       6.20
O      10.74       9.81       3.10
O      10.74       5.37       3.10
O      10.74       7.59       6.94
O       3.58       9.81       3.10
O       3.58       5.37       3.10
O       3.58       7.59       6.94
O       3.58      -2.22      10.04
O       3.58       2.22      10.04
O       3.58       0.00       6.20
