208

Zn      14.80      10.31       0.16
Zn       9.24       2.30       8.56
Zn      18.16       5.68      17.16
Zn       9.26      13.55       8.85
Zn      12.45       8.03       0.27
Zn       5.67       7.91      17.08
Zn       6.98      15.84       8.84
Zn      11.44      15.93       8.37
H      15.16      10.89       3.25
H       3.18      11.25      14.47
H       9.44       3.18      11.63
H       8.81       2.93       5.50
H      13.51       6.95      13.04
H       3.16       7.19       5.62
H       5.65      15.21       3.35
H      13.94      14.87      12.82
H       8.73      10.79       3.76
H       9.48      13.66      15.52
H       3.23       5.56      10.61
H       1.34       2.46       3.70
H       7.52      10.57       5.06
H       9.58      12.21      14.49
H       3.11       4.19      11.74
H       2.69       2.89       2.61
H       7.22       9.60       2.15
H      10.88      12.52      17.25
H       1.92       4.26       8.91
H       2.94       1.21       5.18
H       6.03       9.38       3.45
H      10.97      11.07      16.23
H      16.60       2.91      10.07
H       4.29       1.69       4.11
H      11.82       1.77       2.99
H       6.42       1.83      14.05
H       6.01       9.81      11.87
H      12.12       9.65       5.70
H       4.11      12.19      12.33
H      14.13      11.92       5.18
H       9.82       4.04       3.58
H       8.45       4.12      13.70
H      14.91       4.77       2.89
H       3.06       5.27      13.97
H       9.56      13.17      12.06
H       9.17      12.69       5.67
H      10.18       6.26       2.01
H       8.05       6.19      15.47
H       4.54      14.22      10.47
H      13.71      14.15       6.66
H      13.06       3.12       1.26
H       4.89       3.23      15.49
H       7.61      11.17      10.53
H      10.91      10.97       7.53
H       2.12      12.60       1.55
H      16.50      12.93      16.45
H      11.08       4.85       9.56
H       7.07       4.77       7.35
H       3.13       7.85       2.80
H      14.86       8.32      14.56
H      12.58       0.31      11.41
H       6.07      15.73       5.76
H      11.98       7.94       3.49
H       5.93       7.95      13.87
H       6.48      15.93      12.03
H      11.99       0.00       5.14
H      12.23       5.70      11.41
H       4.65       5.99       7.15
H       4.21      14.07       1.75
H      15.29      13.70      14.45
H       8.04       8.57      15.93
H       9.74       8.28      16.43
H       9.23       9.91      15.88
H       9.78       8.78       1.06
H      13.53       7.86      16.88
H      11.90       8.42      17.35
H      14.24       0.53       7.72
H      13.77      15.73       9.31
H      15.53       0.14       8.90
H       2.64       2.10       7.61
H       3.28       1.41       9.14
H       2.57       0.32       7.89
C      14.41      10.11       3.10
C       3.82      10.37      14.53
C       8.78       2.32      11.52
C       9.55       2.15       5.63
C       1.84       6.10       3.40
C      16.13       6.66      13.69
C      11.30      14.59      12.31
C       7.42      14.03       5.13
C      11.29       4.30       2.03
C       6.83       4.33      15.10
C       5.70      12.33      10.88
C      12.64      12.17       6.71
C       4.00      11.38       1.29
C      14.52      11.88      16.29
C      13.05       3.78       9.72
C       5.34       3.34       7.11
C       6.12      11.46       2.67
C      12.25      12.73      15.51
C      15.31       4.64      10.57
C       3.55       3.37       5.36
C       5.05      12.09       2.03
C      13.65      12.74      15.50
C      13.91       4.67      10.50
C       4.33       4.02       6.32
C      13.32       5.60      11.40
C       4.11       5.42       6.39
C       4.97      13.48       2.27
C      14.20      13.61      14.53
C      14.05       6.32      12.33
C       3.25       6.10       5.52
C       5.80      14.14       3.19
C      13.43      14.29      13.58
C      15.46       6.18      12.49
C       2.53       5.44       4.50
C       6.79      13.46       3.94
C      12.02      14.15      13.50
C       6.95      12.12       3.58
C      11.47      13.39      14.55
C      16.04       5.36      11.51
C       2.68       4.05       4.50
C       7.66      10.85       4.00
C      10.16      12.89      15.13
C       2.55       4.81      11.03
C       2.38       2.82       3.66
C       0.75       5.59       2.66
C      17.23       6.06      14.33
C      10.19      13.97      11.69
C       8.48      13.50       5.90
C       6.72      10.10       2.99
C      11.04      12.16      16.23
C      16.55       4.00       9.96
C       3.38       2.05       4.61
C      11.01       2.30       3.50
C       7.27       2.38      13.61
C       5.21      10.39      12.35
C      12.94      10.18       5.21
C       4.92      11.62      11.87
C      13.32      11.39       5.69
C      10.63       3.52       3.05
C       7.59       3.59      14.12
C      11.00       5.63       1.67
C       7.15       5.60      15.62
C       5.42      13.59      10.33
C      12.90      13.51       7.02
C       4.06      10.13       0.65
C      14.28      10.56      16.75
C      13.27       2.45       9.28
C       5.33       2.01       7.57
C      12.46       4.02       1.29
C       5.55       4.08      15.63
C       6.98      12.03      10.36
C      11.49      11.89       7.46
C       2.64      11.71       1.18
C      15.88      12.05      16.60
C      11.69       3.97       9.42
C       6.61       3.80       7.52
C       2.29       7.19       2.63
C      15.68       7.61      14.63
C      11.72      15.54      11.35
C       6.92      15.07       5.93
C      12.80       8.60       3.21
C       5.21       8.68      14.23
C       7.31       0.68      11.72
C      11.17       0.65       5.45
C      13.42       9.62       3.97
C       4.70       9.82      13.58
C       7.82       1.80      12.41
C      10.54       1.69       4.73
C       8.92       9.01      16.43
C       9.45       8.66       0.01
C      14.50       0.48       8.79
C       3.15       1.23       8.06
N      14.35       9.47       1.92
N       3.84       9.64      15.66
N       8.79       1.60      10.39
N       9.62       1.46       6.78
N       0.59       6.32       1.53
N      17.38       6.58      15.56
N      10.01      14.48      10.46
N       8.57      14.17       7.07
N      11.92       6.10       0.81
N       6.14       6.06      16.38
N       6.44      14.01       9.56
N      11.98      13.99       7.88
N       2.85       9.76       0.21
N      15.39      10.01      17.28
N      12.15       1.91       8.77
N       6.47       1.72       8.21
N      12.83       5.10       0.57
N       5.15       5.12      16.39
N       7.41      13.04       9.58
N      11.10      12.97       8.15
N       1.95      10.75       0.53
N      16.40      10.96      17.19
N      11.16       2.87       8.85
N       7.28       2.82       8.16
N       1.54       7.29       1.51
N      16.43       7.54      15.75
N      10.94      15.45      10.25
N       7.61      15.13       7.08
N      13.36       8.54       1.98
N       4.70       8.60      15.48
N       7.89       0.59      10.51
N      10.62       0.54       6.68
O       5.14       9.32       0.45
O      13.09       9.91      16.66
O      14.45       1.78       9.38
O       4.42       1.00       7.43
