59

Al       4.18      22.52       7.87
H       1.11      10.79       9.29
H       0.71       2.66       1.71
H       1.20      18.19      12.64
H       2.73       6.45       1.58
H       0.75       2.75       4.22
H       1.17      20.28      11.26
H       3.16      16.13       9.42
H       2.65       8.84      12.80
H       1.02       8.57       8.12
H       3.46      23.72      11.14
H       3.71      24.65      12.57
H       3.72      19.13       7.46
H       4.08      17.46       7.66
H       3.37       6.56       5.15
H       3.69       7.27       3.61
C       1.92       6.23       8.96
C       1.91       4.52       5.79
C       2.23      20.70       8.89
C       1.44       9.87       9.78
C       1.88       9.92      11.11
C       1.18       3.48       2.24
C       1.72       4.56       1.52
C       2.18      17.04      11.09
C       1.64      18.22      11.65
C       2.32       5.63       2.18
C       2.45       5.65       3.58
C       1.86       4.58       4.31
C       1.21       3.53       3.63
C       1.64      19.37      10.89
C       2.24      19.42       9.62
C       2.85      18.25       9.08
C       2.75      17.06       9.82
C       2.32       8.77      11.76
C       2.40       7.54      11.08
C       1.90       7.48       9.75
C       1.41       8.65       9.13
C       2.03      13.48      11.75
C       1.86      12.28      13.87
C       1.89      11.20      11.84
C       2.12      15.77      11.83
C       2.01      14.71      13.86
C       1.67       4.56       0.04
N       1.97      13.49      13.16
N       1.83      11.13      13.19
N       1.97      12.32      11.10
N       2.13      14.64      11.10
N       2.05      15.86      13.17
N       1.80      12.30      15.20
N       2.02      14.70      15.19
N       3.14      24.48      11.74
N       3.45      18.23       7.84
N       3.07       6.72       4.19
O       3.13      20.92       8.00
O       2.84       5.37       9.20
O       2.84       5.15       6.41
O       1.31      21.55       9.16
O       1.02       3.83       6.39
O       1.02       6.06       8.07
