142

Zn      18.44      15.99       1.97
Zn      18.40       7.20      14.49
Zn      26.04      20.42      14.47
Zn      29.24      20.44      14.46
Zn       9.19      10.66       5.60
Zn      10.78      11.60       8.21
Zn       9.16       8.83       8.23
Zn      26.04      11.61       8.20
H      14.18       2.05       4.50
H      30.84      15.43       9.99
H      30.76      16.46      12.90
H      20.65      12.09       1.50
H      30.83      17.49      11.45
H      21.03       9.38      12.03
H      22.80      10.40      10.61
H      25.04       5.59       9.91
H      25.92       6.11      11.37
H      23.25       4.56      11.37
H      24.13       5.08      12.83
H      11.86      12.21       2.75
H      13.64       5.62      11.99
H      11.89       6.64      10.54
H      14.88      11.07       9.98
H      20.94       9.65       1.58
H      13.97      11.49      11.45
H       9.37       3.08       4.82
H       9.35       5.10       6.26
H       8.12       8.14       2.02
H       9.90       8.20       1.93
H       8.13       6.09       0.55
H      14.05      14.49       7.07
H       9.91       6.15       0.47
H      22.71       8.63       3.03
H      24.17      10.06       4.40
H      25.47      14.60       6.01
H      25.17      17.04       5.94
H      21.95      16.63       3.12
H      13.61      13.23       1.32
H      17.54      11.05      11.30
H      14.90      10.89      13.58
H      16.28      10.03      13.82
H      14.94      12.95       7.07
H      15.83      15.52       5.62
H      16.72      13.98       5.61
H      25.52      17.08      11.98
H      25.53      15.07      10.52
H      30.76      14.40      11.44
C      20.93       6.85      13.02
C      24.53      16.40       5.34
C      23.53      16.98       4.51
C      15.87      14.53       2.09
C      22.72      16.18       3.74
C      14.90      13.96       4.35
C      14.83      13.93       2.96
C      13.70      13.28       2.40
C      12.72      12.71       3.21
C      12.80      12.75       4.62
C      13.91      13.39       5.15
C      23.40      10.51       3.77
C      14.61      13.79       6.44
C      15.72      14.43       5.53
C      28.85      16.56      11.78
C       9.22       2.94       2.10
C      27.66      17.18      12.17
C      26.46      16.61      11.70
C      26.47      15.49      10.88
C      27.67      14.85      10.49
C      28.85      15.43      10.97
C      30.36      15.31      10.97
C      23.26      11.93       3.77
C      30.36      16.60      11.89
C      23.11       6.73      11.76
C      21.98       7.45      12.17
C      21.90       8.79      11.73
C      27.65      18.39      13.05
C      22.89       9.36      10.93
C      24.03       8.63      10.52
C      24.10       7.31      10.96
C      24.92       6.04      10.91
C      23.81       5.39      11.82
C      22.24      12.52       2.93
C      14.87       8.75      11.76
C      14.82       7.41      12.16
C      13.72       6.67      11.70
C      12.74       7.24      10.88
C      12.80       8.59      10.48
C      15.85       6.81      13.05
C      13.90       9.32      10.95
C      14.54      10.69      10.95
C      15.67      10.04      11.89
C       9.14       5.44       2.42
C      24.06      12.77       4.57
C       9.22       4.16       2.96
C       9.30       4.07       4.37
C       9.29       5.20       5.17
C       9.20       6.50       4.62
C       9.13       6.58       3.23
C       9.04       7.53       2.06
C      21.00      14.53       2.08
C       9.04       6.24       1.14
C      27.66      13.64       9.63
C       9.18       7.71       5.49
C      23.89      14.17       4.58
C      11.75      12.14       5.47
C      25.07       9.24       9.66
C      11.74       9.20       9.64
C      25.11      12.16       5.45
C      21.42      11.65       2.14
C      21.59      10.29       2.18
C      22.59       9.71       3.01
C      17.02      10.07      11.18
C      22.87      14.76       3.74
C      22.07      13.92       2.94
C      24.71      15.04       5.37
N      15.82      10.68      13.18
O      18.44      15.99       0.01
O      26.04       8.47       9.33
O      11.92      10.42       9.30
O      21.09       5.62      13.33
O      24.93      12.24       6.70
O      10.75       8.46       9.32
O      26.10      11.61       4.85
O      10.78      11.54       4.87
O      24.93      10.46       9.33
O      28.80      13.14       9.34
O       9.20       7.53       6.75
O       9.29       1.81       2.69
O      16.85      15.10       2.69
O       9.16       3.13       0.84
O      26.51      18.86      13.38
O      16.74       7.61      13.50
O      21.19      14.47       0.82
O      15.75       5.57      13.30
O      20.01      15.04       2.68
O      17.51       9.15      10.55
O      28.79      18.84      13.40
O      19.96       7.60      13.38
O      15.71      14.44       0.82
O      27.64      10.68       7.56
O      26.52      13.21       9.24
O       9.13       8.84       4.89
O      11.90      12.26       6.73
