166

Zn       1.14       1.14      27.19
Zn      10.41      10.41      27.19
Zn       1.14      10.41       9.80
Zn      10.41       1.14       9.80
Zn      10.41       1.14      24.98
Zn       1.14      10.41      24.98
Zn      10.41      10.41       7.59
Zn       1.14       1.14       7.59
H       1.72       3.63      28.76
H       9.83       7.92      28.76
H       3.63       9.83      11.37
H       7.92       1.72      11.37
H       9.83       3.63      23.41
H       1.72       7.92      23.41
H       7.92       9.83       6.02
H       3.63       1.72       6.02
H       9.83       7.92       6.02
H       1.72       3.63       6.02
H       7.92       1.72      23.41
H       3.63       9.83      23.41
H       1.72       7.92      11.37
H       9.83       3.63      11.37
H       3.63       1.72      28.76
H       7.92       9.83      28.76
H       1.15       5.32      28.74
H      10.40       6.23      28.74
H       5.32      10.40      11.34
H       6.23       1.15      11.34
H      10.40       5.32      23.44
H       1.15       6.23      23.44
H       6.23      10.40       6.05
H       5.32       1.15       6.05
H      10.40       6.23       6.05
H       1.15       5.32       6.05
H       6.23       1.15      23.44
H       5.32      10.40      23.44
H       1.15       6.23      11.34
H      10.40       5.32      11.34
H       5.32       1.15      28.74
H       6.23      10.40      28.74
H       2.56       4.86      27.78
H       8.99       6.69      27.78
H       4.86       8.99      10.39
H       6.69       2.56      10.39
H       8.99       4.86      24.39
H       2.56       6.69      24.39
H       6.69       8.99       7.00
H       4.86       2.56       7.00
H       8.99       6.69       7.00
H       2.56       4.86       7.00
H       6.69       2.56      24.39
H       4.86       8.99      24.39
H       2.56       6.69      10.39
H       8.99       4.86      10.39
H       4.86       2.56      27.78
H       6.69       8.99      27.78
H       1.52       1.52      31.36
H      10.03      10.03      31.36
H       1.52      10.03      13.97
H      10.03       1.52      13.97
H      10.03       1.52      20.81
H       1.52      10.03      20.81
H      10.03      10.03       3.42
H       1.52       1.52       3.42
H       1.53       1.53      33.82
H      10.02      10.02      33.82
H       1.53      10.02      16.43
H      10.02       1.53      16.43
H      10.02       1.53      18.35
H       1.53      10.02      18.35
H      10.02      10.02       0.96
H       1.53       1.53       0.96
C       0.68       4.18      26.97
C      10.88       7.37      26.97
C       4.18      10.88       9.58
C       7.37       0.68       9.58
C      10.88       4.18      25.20
C       0.68       7.37      25.20
C       7.37      10.88       7.81
C       4.18       0.68       7.81
C      10.88       7.37       7.81
C       0.68       4.18       7.81
C       7.37       0.68      25.20
C       4.18      10.87      25.20
C       0.68       7.37       9.58
C      10.88       4.18       9.58
C       4.18       0.68      26.97
C       7.37      10.88      26.97
C       0.00       5.04      26.09
C       0.00       6.51      26.09
C       5.04      11.55       8.70
C       6.51      11.55       8.70
C       0.00       6.51       8.70
C       0.00       5.04       8.70
C       6.51      11.55      26.09
C       5.04      11.55      26.09
C       1.57       4.51      28.12
C       9.98       7.04      28.12
C       4.51       9.98      10.73
C       7.04       1.57      10.73
C       9.98       4.51      24.05
C       1.57       7.04      24.05
C       7.04       9.98       6.66
C       4.51       1.57       6.66
C       9.98       7.04       6.66
C       1.57       4.51       6.66
C       7.04       1.57      24.05
C       4.51       9.98      24.05
C       1.57       7.04      10.73
C       9.98       4.51      10.73
C       4.51       1.57      28.12
C       7.04       9.98      28.12
C      11.55      11.55      29.70
C      11.55       0.00      12.31
C       0.00      11.55      22.47
C      11.55      11.55       5.08
C       0.00      -0.00      31.20
C      11.55       0.00      13.81
C       0.00      11.55      20.97
C       0.00      11.55       3.58
C       0.85       0.85      31.91
C      10.70      10.70      31.91
C       0.85      10.70      14.52
C      10.70       0.85      14.52
C      10.70       0.85      20.26
C       0.85      10.70      20.26
C      10.70      10.70       2.87
C       0.85       0.85       2.87
C       0.85       0.85      33.30
C      10.70      10.70      33.30
C       0.85      10.70      15.91
C      10.70       0.85      15.91
C      10.70       0.85      18.87
C       0.85      10.70      18.87
C      10.70      10.70       1.48
C       0.85       0.85       1.48
C      11.55      11.55      34.04
C       0.00      -0.00      16.65
C       0.00      11.55      18.13
C      11.55      11.55       0.74
N       0.42       2.91      26.63
N      11.14       8.65      26.63
N       2.91      11.14       9.24
N       8.65       0.42       9.24
N      11.14       2.91      25.54
N       0.42       8.65      25.54
N       8.65      11.14       8.15
N       2.91       0.42       8.15
N      11.14       8.65       8.15
N       0.42       2.91       8.15
N       8.65       0.42      25.54
N       2.91      11.14      25.54
N       0.42       8.65       9.24
N      11.14       2.91       9.24
N       2.91       0.42      26.63
N       8.65      11.14      26.63
O       0.00      11.55      26.09
O      11.55      -0.00       8.70
O       0.81       0.81      29.13
O      10.74      10.74      29.13
O       0.81      10.74      11.74
O      10.74       0.81      11.74
O      10.74       0.81      23.04
O       0.81      10.74      23.04
O      10.74      10.74       5.65
O       0.81       0.81       5.65
