140

Zn      -1.24      -2.90       8.47
Zn       8.81      11.77       8.24
Zn      -8.17      12.58       6.43
Zn      -3.99      -3.80      10.17
H       0.85      -0.76       6.49
H       3.93      12.02       2.05
H       2.42       2.97      16.40
H       3.01      10.90       0.03
H       2.05       1.47       2.20
H      -8.73       7.13      14.79
H       2.56       2.54       0.02
H      -4.03      15.92       0.50
H       5.81      10.54       8.77
H       0.76      -3.94      10.71
H       9.89      13.80       3.80
H      -8.75       9.94      10.11
H      -3.62      -1.73      12.75
H      13.39      -2.55       8.30
H      12.14       9.49       5.28
H       6.49      12.63       6.22
H       0.08      -0.81      10.70
H      12.35      -4.16      11.11
H      -5.94      10.93       8.08
H      12.42       2.52       3.64
H      12.12       4.00       8.32
H      15.06       4.24       2.92
H      10.02       3.13       5.01
H       9.47       2.37       9.01
H      -2.98       0.05       5.67
H      -1.61      -0.84       6.18
H       8.45       8.66       9.00
H       8.82       7.25       8.15
H      12.63      14.32       1.96
H      -3.64      -6.92      14.31
H      14.53       3.38       6.94
H       0.82       9.79       9.60
H       5.44      -4.79      11.89
H      -1.66       9.84       9.64
H       7.92      -4.85      11.84
H       1.50       1.85      14.38
C       0.64      -1.74       6.08
C      13.52       3.33       6.53
C      12.35       2.84       4.68
C      12.20       3.67       7.28
C      14.03      -0.29       6.43
C      10.88       6.99       6.29
C      11.52       2.39       6.68
C      13.03       4.12       5.28
C      12.87       2.01       5.93
C      11.68       4.50       6.04
C      13.48       0.73       6.03
C      -9.11      10.84      10.61
C      11.16       5.81       6.12
C      -1.09      10.63      10.13
C       7.34      -5.64      11.37
C       5.93      11.48       9.30
C       0.64      -4.70       9.94
C      -1.78      11.70      10.74
C       1.06      11.64      10.69
C       5.96      -5.61      11.40
C       0.30      10.60      10.11
C      -3.17      11.85      10.58
C       5.00      12.20      10.07
C       2.46      11.72      10.54
C       3.65      11.90      10.33
C      -4.33      12.09      10.28
C       1.42       2.56      16.42
C       4.01      11.33       0.01
C       5.83      12.48       1.13
C      -0.39       1.36      15.31
C       4.52      11.96       1.13
C       0.90       1.93      15.29
C       6.43      12.97       2.32
C      -5.57      12.45       9.71
C      -0.86       0.64      14.19
C      -1.22      -0.05      13.25
C       7.03      13.21       3.35
C       2.63       1.46       0.13
C      -4.13      17.00       0.39
C       9.21      13.50       4.59
C      -2.79      -1.63      12.06
C      -2.18      -9.18      15.48
C       2.43      -0.54       1.49
C      -9.03       7.74      15.65
C       7.82      13.27       4.51
C       2.35       0.86       1.35
C      -9.03       9.75      14.22
C       2.04      -1.15       2.70
C       1.62      -1.66       3.73
C      -9.02      10.32      13.13
C      14.38      -2.33       7.91
C      11.32       9.47       5.99
C       7.47      12.89       5.82
C      -0.89      -1.18      11.01
C      16.16      -1.52       6.85
C      -1.61      -0.87      12.18
C       9.66       8.91       7.38
C      12.69      -4.98      10.49
C      -6.20      11.85       8.60
C      -6.48      14.72       4.90
C      -2.76      -5.89      12.01
C       1.02      -2.28       4.83
C      -9.20      11.11      11.99
C      14.76      -1.36       6.97
C      10.62       8.35       6.50
C      11.03       3.19       5.43
S      13.97       5.32       4.40
S      10.56       1.22       7.58
S      -6.40      13.39       3.79
S      -3.40      -5.01      13.39
N      -0.04      -2.67       6.79
N      -1.59      -2.04      10.26
N      -3.02      -2.51       7.67
N       9.78      10.25       7.37
N      13.94      -5.01      10.00
N      -7.22      12.62       8.19
N      -7.11      14.51       6.06
N      -2.95      -5.44      10.77
N      -2.61      -0.83       6.00
N       8.68       8.26       8.10
N      -9.56      11.90       9.90
N       7.10      12.15       9.26
N      -0.33      -4.61       9.01
N       9.64      13.24       5.84
N      -2.77      -2.33      10.91
N      15.46      -3.00       8.33
N      10.82      10.59       6.51
N       8.57      12.87       6.59
O      13.23       5.76       3.24
O      -2.34      -4.59      14.26
O      -4.39      -4.08      12.91
O      -4.25      -6.17      14.11
O      -5.07       6.24       5.35
O      15.21       4.41       3.88
O      10.01       0.28       6.65
O      11.28       0.81       8.76
O       9.32       2.17       8.06
O      -5.09      13.26       3.21
O      -7.04      12.27       4.46
O      12.15      13.78       2.62
