170

Zn       3.89       7.86       8.72
Zn      -1.99      27.63       9.29
Zn      19.87      29.03      11.47
Zn      18.64      27.94       8.72
Zn      19.87       9.59       0.83
Zn       3.89      23.31      17.18
Zn      18.64      12.49       0.26
Zn      -1.99      12.18       0.83
H      23.18       6.49       5.70
H       0.58      10.96       3.85
H      21.81       7.50       3.85
H       1.96       9.95       5.70
H      21.81      27.61      14.86
H       1.96      24.73      13.79
H      23.18      26.60      16.71
H       0.58      25.74      11.94
H      26.88      17.93      18.43
H       4.01      19.96      14.72
H      26.88       9.71      13.93
H       4.01      11.74      10.22
H      -1.44      15.74       2.90
H      18.09      16.16       2.14
H      -1.44      23.96       7.41
H      18.09      24.38       6.64
H      16.64       8.00       2.91
H      14.97      11.91       2.14
H       8.79       5.53       7.41
H       7.13       9.45       6.64
H       7.13      24.21      14.72
H       8.79      25.67      18.43
H      14.97      26.67      10.22
H      16.64      28.14      13.93
H       4.03      16.89      12.94
H      26.86      14.78      16.80
H       4.03      14.89      11.85
H      26.86      12.77      15.71
H      18.00      19.28       3.83
H      -1.36      18.84       4.62
H      18.00      21.28       4.93
H      -1.36      20.84       5.72
H      11.97      11.06       3.83
H      13.71       6.99       4.62
H      10.06      10.46       4.93
H      11.80       6.39       5.72
H      11.80      26.63      16.80
H      10.06      25.11      12.94
H      13.71      27.23      15.70
H      11.97      25.71      11.85
C       6.59       7.06       7.81
C      22.18      27.33      12.20
C      27.33       9.29      11.29
C      17.17      27.83      11.29
C       1.58       7.56       6.90
C      20.21      25.61       7.81
C       3.56      20.38      17.36
C       1.58      25.01      16.45
C      17.17      10.39       1.74
C      20.21      14.52       1.74
C      22.18       9.89       2.65
C       6.59      24.51      17.36
C       0.76       8.16       5.80
C      23.00       9.28       3.75
C      23.43       7.46       5.29
C       0.34       9.98       4.26
C      22.67       8.02       4.26
C       1.10       9.42       5.28
C      23.00      26.73      13.30
C       0.77      25.61      15.35
C      22.67      26.98      14.64
C       1.10      25.36      14.01
C      23.43      26.42      15.66
C       0.34      25.92      12.99
C      27.33      19.07      16.64
C      27.07      17.89      17.36
C      27.07      16.67      16.69
C      27.33      16.61      15.30
C       3.81      17.82      14.60
C       3.82      19.04      15.26
C      27.33      15.37      14.62
C      27.33      14.29      14.03
C      27.33      13.06      13.35
C      27.07      11.85      14.05
C      27.07      10.63      13.38
C      27.33      10.60      12.01
C       3.81      11.77      11.29
C       3.81      12.99      11.95
C      -3.56      15.83       2.46
C      -2.36      16.31       3.00
C      -2.36      17.53       3.67
C      -3.56      18.28       3.80
C      19.01      17.77       3.24
C      19.01      16.55       2.57
C      20.21      19.52       4.48
C      20.21      20.60       5.07
C      20.21      21.84       5.75
C      -2.36      22.36       6.31
C      -2.36      23.57       6.98
C      20.21      24.29       7.09
C      19.01      23.81       6.55
C      19.01      22.59       5.88
C      15.92       9.99       2.46
C      15.82       8.71       3.00
C      14.66       8.34       3.67
C      13.58       9.26       3.80
C      13.71      10.55       3.24
C      14.88      10.92       2.57
C      12.40       8.89       4.48
C      11.37       8.56       5.07
C      10.19       8.19       5.75
C      10.05       6.89       6.31
C       8.89       6.53       6.98
C       7.85       7.46       7.09
C       7.95       8.74       6.55
C       9.11       9.11       5.88
C       7.85      24.90      16.64
C       7.95      24.67      15.26
C       9.11      25.03      14.60
C      10.19      25.64      15.30
C      10.05      25.86      16.69
C       8.89      25.50      17.36
C      11.37      26.01      14.62
C      12.40      26.33      14.03
C      13.58      26.70      13.35
C      13.71      26.48      11.95
C      14.88      26.84      11.29
C      15.92      27.44      12.01
C      15.82      27.67      13.38
C      14.66      27.31      14.05
O      20.21      28.78       9.55
O       5.67       7.94       7.89
O      -1.22      27.07      11.00
O      27.09       8.25      11.99
O       6.55       5.88       8.29
O       3.80       9.32      10.04
O      21.19      28.06      12.55
O      18.10      28.37      11.99
O      24.99       6.41       7.32
O      17.22      27.60      10.03
O       2.57       8.25       7.32
O      -2.44      26.00       8.29
O      19.09      26.22       7.89
O       3.56      23.56      19.10
O      27.09      20.35      18.61
O       2.57      24.28      16.10
O      17.22      11.57       1.26
O       3.80      21.42      16.66
O      18.09       9.50       1.66
O      24.99      25.27      17.64
O      19.09      14.12       1.26
O      -1.22      11.04       2.23
O      -2.44      13.90       1.66
O      21.19       9.20       2.23
O       5.67      23.97      16.66
O       6.55      24.74      18.61
O       4.06      17.81      13.26
O      26.82      15.54      17.41
O       4.06      14.13      11.24
O      26.82      11.85      15.39
O      17.83      18.45       3.34
O      -1.19      17.98       4.19
O      17.83      22.14       5.36
O      -1.19      21.67       6.21
O      12.71      11.47       3.34
O      14.58       7.08       4.19
O       9.19      10.36       5.36
O      11.06       5.98       6.21
O      11.06      26.44      17.41
O       9.19      24.80      13.26
O      14.58      27.54      15.39
O      12.71      25.90      11.24
