302

Fe       7.58      -0.18      10.19
Fe      -3.61       6.79       0.00
H      12.67       0.64      11.32
H      -1.10       4.10      13.33
H       2.70       1.71      12.30
H       2.00       0.51      11.18
H       4.77       0.98      10.94
H      -0.37      11.26      12.30
H      -2.22      10.63      13.86
H      -4.36      11.99      13.83
H      -2.05       5.20      11.60
H      11.81       5.19      10.67
H      -2.16       4.25      10.10
H      11.10       2.98      13.65
H      10.45       4.34      12.71
H      11.97       4.53      13.61
H      11.69       2.22       9.96
H      10.35       3.22      10.57
H      10.75       1.70      11.38
H       7.90       8.63      15.84
H       9.40      10.28      12.15
H       4.22      10.75      13.96
H       4.85      11.27      12.36
H       2.69      11.82      11.44
H       7.80       1.53      12.79
H       9.27       1.75      14.80
H      11.22       0.17      15.07
H      10.57       6.46      14.94
H       8.87       6.76      15.32
H      10.14       7.84      15.96
H      -3.84       9.22      14.34
H      -4.18       9.23      12.59
H      -3.53       7.77      13.36
H       9.13       7.80      11.73
H       8.26       6.79      12.91
H       9.94       6.40      12.47
H      13.22       1.55      19.25
H       3.70      12.08      17.23
H       7.58       9.86      18.26
H       8.32      11.04      19.38
H       9.20       8.37      19.62
H      -2.29       8.07      18.26
H      -2.60      10.00      16.71
H      -4.81      11.25      16.73
H       2.28      12.40      18.96
H       8.80       0.17      19.90
H       3.27      13.30       0.08
H      10.41       1.85      16.91
H       8.91       1.78      17.85
H       9.46       0.34      16.95
H      11.58       2.04       0.23
H       9.85       2.39      19.99
H      11.38       2.75      19.19
H       3.93       2.01      14.72
H       3.17      -0.09      18.42
H       0.32       4.26      16.60
H       0.16       3.46      18.20
H      -1.34       5.11      19.12
H      10.15       5.43      17.77
H      10.64       4.04      15.76
H      12.96       3.06      15.49
H       7.10       0.67      15.62
H       6.03       2.03      15.24
H       5.67       0.41      14.60
H      -2.11      12.09      16.22
H      -2.28      12.39      17.97
H      -0.69      12.51      17.20
H       5.24       1.32      18.83
H       5.72       2.56      17.66
H       6.85       1.26      18.09
H      -4.74      12.58       9.06
H       9.03       9.12       7.05
H       5.24      11.50       8.08
H       5.93      12.71       9.19
H       3.16      12.23       9.44
H       8.31       1.96       8.07
H      10.16       2.58       6.52
H      12.30       1.22       6.55
H       9.98       8.02       8.78
H      -3.88       8.02       9.71
H      10.10       8.97      10.27
H      -3.16      10.24       6.72
H      -2.51       8.88       7.66
H      -4.04       8.69       6.76
H      -3.75      11.00      10.42
H      -2.41      10.00       9.80
H      -2.82      11.52       9.00
H       0.04       4.59       4.53
H      -1.46       2.94       8.23
H       3.72       2.46       6.42
H       3.08       1.95       8.01
H       5.25       1.40       8.93
H       0.13      11.69       7.58
H      -1.33      11.47       5.58
H      -3.29      13.05       5.30
H      -2.64       6.76       5.43
H      -0.93       6.45       5.05
H      -2.20       5.37       4.41
H      11.77       4.00       6.03
H      12.11       3.99       7.78
H      11.47       5.45       7.01
H      -1.19       5.42       8.64
H      -0.32       6.43       7.47
H      -2.00       6.82       7.90
H      -5.29      11.66       1.13
H       4.24       1.14       3.14
H       0.35       3.36       2.11
H      -0.39       2.18       0.99
H      -1.27       4.85       0.75
H      10.22       5.14       2.12
H      10.54       3.21       3.67
H      12.74       1.97       3.64
H       5.66       0.81       1.41
H      -0.86      13.04       0.48
H       4.66      -0.09      20.29
H      -2.48      11.37       3.46
H      -0.98      11.43       2.52
H      -1.52      12.87       3.43
H      -3.64      11.18      20.14
H      -1.92      10.82       0.39
H      -3.45      10.46       1.19
H       4.01      11.20       5.65
H       4.76      13.30       1.96
H       7.61       8.95       3.77
H       7.77       9.76       2.18
H       9.27       8.10       1.25
H      -2.21       7.78       2.61
H      -2.71       9.18       4.61
H      -5.02      10.16       4.88
H       0.84      12.54       4.75
H       1.90      11.18       5.14
H       2.26      12.81       5.77
H      10.05       1.12       4.15
H      10.21       0.83       2.41
H       8.62       0.71       3.18
H       2.70      11.90       1.55
H       2.22      10.66       2.72
H       1.08      11.96       2.29
C       0.12       2.34      13.36
C       0.26       1.00      12.95
C      14.59       0.39      12.24
C      13.46       1.14      11.88
C      13.34       2.49      12.22
C      -1.02       3.06      13.00
C       2.43       0.65      12.19
C       3.64      -0.21      12.35
C       4.76       0.09      11.57
C      -1.29      11.85      12.36
C      -2.33      11.50      13.21
C      -3.51      12.25      13.20
C      12.14       3.35      11.77
C      12.66       4.57      10.99
C      11.37       3.83      13.02
C      11.18       2.57      10.87
C       7.71      11.27      13.00
C       6.76      11.29      14.05
C       6.87      10.34      15.08
C       7.86       9.35      15.03
C       8.76       9.28      13.96
C       8.69      10.27      12.98
C       4.57      11.62      13.37
C       3.49      12.65      13.27
C       2.60      12.60      12.20
C       8.63       0.85      12.96
C       9.46       0.97      14.07
C      10.53       0.09      14.23
C       9.74       8.11      13.82
C       9.82       7.25      15.09
C      -4.22       8.62      13.51
C       9.24       7.22      12.66
C       0.60      10.28       9.72
C       5.82      11.83      17.20
C       7.07      12.34      17.62
C      14.34      -0.02      18.32
C      13.15       0.63      18.68
C      11.90       0.10      18.35
C       4.65      12.50      17.56
C       8.40      10.59      18.37
C       9.73       9.92      18.21
C       9.98       8.79      18.99
C      -3.23       8.61      18.21
C      -3.42       9.69      17.36
C      -4.64      10.38      17.36
C      10.58       0.75      18.79
C       9.74      -0.28      19.57
C       9.79       1.20      17.55
C      10.82       1.96      19.69
C       1.51       0.94      17.56
C       1.05       1.76      16.51
C       1.93       2.11      15.48
C       3.27       1.71      15.53
C       3.76       0.95      16.60
C       2.85       0.54      17.58
C      -0.28       3.55      17.19
C      -1.70       4.01      17.29
C      -2.07       4.82      18.37
C      11.14       5.02      17.60
C      11.43       4.23      16.49
C      12.71       3.70      16.33
C       5.25       0.63      16.74
C       6.05       0.96      15.47
C      -1.76      12.71      17.06
C       5.80       1.49      17.90
C      -0.75       8.04       0.46
C       7.81      10.88       7.01
C       7.67      12.21       7.43
C      -6.65      12.82       8.13
C      -5.52      12.08       8.49
C      -5.40      10.72       8.16
C       8.96      10.16       7.38
C       5.51      12.57       8.18
C       4.29      13.43       8.02
C       3.17      13.12       8.81
C       9.22       1.37       8.02
C      10.27       1.72       7.17
C      11.45       0.96       7.18
C      -4.21       9.87       8.60
C      -4.72       8.65       9.38
C      -3.44       9.39       7.36
C      -3.25      10.65       9.51
C       0.23       1.95       7.37
C       1.17       1.93       6.33
C       1.06       2.87       5.29
C       0.08       3.87       5.35
C      -0.83       3.94       6.41
C      -0.76       2.94       7.40
C       3.37       1.60       7.00
C       4.45       0.56       7.10
C       5.33       0.62       8.18
C      -0.70      12.37       7.42
C      -1.53      12.25       6.31
C      -2.60      13.13       6.15
C      -1.81       5.11       6.56
C      -1.89       5.97       5.28
C      12.15       4.60       6.87
C      -1.30       5.99       7.71
C       7.34       2.94      10.65
C       2.11       1.38       3.18
C       0.87       0.88       2.76
C      -6.40      13.24       2.05
C      -5.21      12.59       1.69
C      -3.96      13.12       2.03
C       3.29       0.71       2.81
C      -0.46       2.62       2.01
C      -1.79       3.29       2.16
C      -2.05       4.43       1.38
C      11.17       4.61       2.17
C      11.35       3.53       3.02
C      12.57       2.84       3.01
C      -2.65      12.47       1.59
C      -1.81      13.50       0.81
C      -1.86      12.01       2.83
C      -2.88      11.25       0.68
C       6.43      12.27       2.82
C       6.89      11.45       3.86
C       6.00      11.11       4.90
C       4.66      11.51       4.84
C       4.17      12.27       3.78
C       5.09      12.68       2.79
C       8.22       9.67       3.18
C       9.63       9.20       3.08
C      10.00       8.40       2.01
C      -3.21       8.19       2.77
C      -3.49       8.98       3.88
C      -4.77       9.51       4.04
C       2.68      12.59       3.63
C       1.89      12.26       4.90
C       9.69       0.51       3.32
C       2.14      11.72       2.48
C       8.69       5.18      19.91
S       1.43       3.21      14.18
S       7.54      12.32      11.59
S       0.31       8.76       9.31
S       5.66      10.27      16.38
S       0.50       0.59      18.98
S       0.46       9.00       0.88
S       6.51      10.00       6.19
S       0.39       0.89       8.79
S       7.62       4.46      11.06
S       2.27       2.95       4.00
S       7.44      12.63       1.40
S       7.47       4.22      19.50
N      -1.35      12.92      11.54
N       8.82      -0.10      12.02
N       0.80      11.42      10.02
N      -4.21       8.16      19.02
N      12.06       5.31      18.54
N      -1.66       7.32       0.17
N       9.28       0.30       8.83
N      -0.88      13.32       8.35
N       7.13       1.80      10.35
N      12.14       5.06       1.35
N      -4.13       7.91       1.83
N       9.60       5.90      20.21
O       1.43       0.30      13.17
O       5.72      12.19      14.03
O       8.24      11.64      17.39
O      -0.24       2.26      16.54
O       6.50      12.92       7.21
O       2.21       1.03       6.35
O      -0.30       1.58       2.98
O       8.17      10.96       3.84
