207

Al      11.27       6.44      13.92
Al      14.43       6.91      13.90
Al      12.66       9.31      13.79
Al       1.61       0.80       0.43
Al      11.19       0.77       0.53
Al       6.08       9.41       0.46
H      14.24      10.90      22.43
H       9.34       7.45      22.10
H      14.80       4.66      22.64
H      13.64       9.17      20.18
H      11.37       8.23      20.10
H      14.00       6.14      20.29
H      14.09       9.14      22.47
H      10.89       8.24      22.40
H      13.47       5.83      22.55
H       4.92       8.41      21.91
H       3.34       0.46      22.02
H      10.81       3.31      21.77
H       8.95       0.29       3.79
H       7.63       7.53       3.81
H       2.08       2.82       3.73
H       7.68       1.10       8.34
H       8.31       5.84       8.24
H       3.71       4.29       7.99
H       4.57       7.85       3.89
H       9.69      11.29       3.75
H      10.60       2.61       4.20
H       4.76       6.56       5.99
H       4.60       0.83       5.74
H       9.54       3.20       6.34
H       4.46       6.43       8.44
H       5.24       0.57       8.12
H       9.74       3.91       8.70
H      13.95      10.91      20.10
H       9.86       7.36      19.81
H      15.17       4.81      20.32
H      16.26       7.35      10.52
H      11.46      10.52      10.20
H      11.13       4.69      10.57
H      17.63      10.62      19.49
H       7.75      10.42      19.30
H      12.67       2.13      19.55
H      10.02       0.48      19.55
H       7.72       8.66      19.41
H       1.62       2.45      19.65
H      10.22       0.66      21.88
H       7.26       8.84      21.70
H       1.60       2.26      21.99
H      17.93      10.94      21.78
H       7.39      10.60      21.61
H      12.74       1.65      21.84
H      15.61       7.54      20.02
H      11.43      10.77      19.95
H      11.56       5.65      20.06
H      17.21       8.14      19.63
H       3.66       0.38      19.69
H      11.00       4.06      19.54
H      16.15       7.67      22.30
H      11.06      10.77      22.27
H      11.06       4.99      22.26
H       8.46       1.22      10.06
H       8.24       0.74      12.76
H       9.41       1.84      11.98
H       9.86       0.15      12.33
H       9.45       6.71      11.63
H       7.62       5.50      11.53
H       8.14       4.89       9.95
H       7.09       6.33      10.03
H      15.56       4.99      11.45
H       4.54       3.62      11.28
H       4.86       4.36       9.70
H       3.86       2.88       9.80
H       9.32       5.34      14.66
H       3.94       2.01      27.18
C      10.70       8.78      15.70
C      13.31       5.27      15.82
C      14.70       9.11      15.76
C      16.63       8.48      21.72
C      10.11      10.81      21.71
C      11.50       4.16      21.68
C      16.31       8.36      20.21
C      10.35      10.78      20.19
C      11.71       4.57      20.21
C      16.39       9.96      23.70
C       8.97       9.67      23.57
C      12.72       3.48      23.73
C      15.42       9.58      18.26
C       9.97       9.40      18.16
C      13.31       4.50      18.34
C      15.16       9.45      17.08
C      10.21       9.19      16.99
C      13.39       4.75      17.16
C      12.64       2.14       2.45
C      16.77       9.96       2.31
C       8.11       9.73       2.30
C      12.79       2.63      26.24
C      17.12      10.36      26.21
C       8.34      10.10      26.10
C      15.10      10.54      10.04
C       9.53       7.68       9.89
C      14.48       4.47       9.87
C      15.10      10.54       8.60
C       9.24       7.80       8.48
C      14.37       4.09       8.49
C      15.32      10.63       5.74
C       8.60       8.07       5.67
C      14.14       3.34       5.71
C      10.82       8.65      11.87
C      13.20       5.27      11.96
C      14.95       8.99      12.07
C       8.34       0.34       6.48
C       8.27       6.90       6.43
C       2.61       3.67       6.31
C       8.26       0.32       7.85
C       8.57       6.77       7.75
C       2.73       4.02       7.62
C      15.57      10.72       4.36
C       8.23       8.27       4.33
C      13.99       2.93       4.37
C      16.32       9.73       3.71
C       8.61       9.43       3.67
C      12.73       2.67       3.85
C      16.01       8.27       9.98
C      10.82       9.79       9.71
C      12.02       4.49       9.98
C      16.22       8.33       8.61
C      10.47       9.95       8.37
C      11.90       4.03       8.68
C      15.70       9.46       7.90
C       9.68       8.94       7.74
C      13.09       3.85       7.91
C      16.87       7.28       7.88
C      10.90      11.09       7.62
C      10.62       3.77       8.09
C       4.25       7.36       6.53
C      10.55      11.24       6.31
C      10.52       3.38       6.79
C      16.54       8.48       5.79
C       9.77      10.24       5.64
C      11.68       3.21       5.97
C      14.37       9.95      20.45
C      10.29       8.26      20.29
C      14.14       5.09      20.59
C      15.84       9.52       6.48
C       9.35       9.08       6.36
C      12.97       3.46       6.54
C      16.77       8.61       4.41
C       9.40      10.40       4.30
C      11.58       2.82       4.63
C      15.42       9.32      10.72
C      10.37       8.70      10.48
C      13.26       4.73      10.59
C      16.68      10.83      19.99
C       8.18       9.56      19.84
C      13.43       2.73      20.07
C      16.87      10.98      21.51
C       7.90       9.66      21.36
C      13.39       2.50      21.59
C      16.63      10.10      24.88
C       8.73       9.77      24.76
C      12.69       3.20      24.92
C      15.69       9.68      19.68
C       9.70       9.51      19.58
C      13.16       4.23      19.76
C      14.61       9.97      21.98
C       9.97       8.30      21.80
C      13.87       4.91      22.10
C      16.13       9.84      22.27
C       9.24       9.61      22.15
C      12.85       3.76      22.32
C       9.04       0.81      12.01
C       7.93       5.81      10.52
C       4.10       3.84      10.30
Br       7.42       1.72       5.54
Br       7.41       5.44       5.56
Br       4.17       3.68       5.22
N       8.59       0.43      10.68
N       9.08       6.67      10.67
N       2.90       4.63      10.50
O      12.15       5.37      15.32
O      15.19       8.05      15.24
O      11.27       9.68      14.98
O       8.72      11.21      26.54
O      11.70       2.48      26.91
O      17.85       9.46      26.75
O      10.58       7.55      15.41
O      14.41       5.64      15.26
O      13.79       9.85      15.23
O      12.06       5.45      12.48
O      15.36       7.89      12.61
O      11.57       9.61      12.32
O      10.50       7.66      12.61
O      14.31       5.58      12.58
O      14.06       9.73      12.61
O      12.80       7.56      13.90
O       8.46      10.82       1.77
O      11.47       1.92       1.97
O      17.55       9.10       1.79
O      13.73       1.91       1.85
O      16.42      11.05       1.74
O       7.29       8.89       1.77
O      18.97      11.17       0.45
O      13.94       2.27      26.60
O      16.85      11.50      26.71
O       7.58       9.25      26.71
O       9.81       5.44      13.83
O       3.14       1.66       0.41
