148

Al       5.82      23.78      12.63
Al       2.50       0.06      12.61
Al       0.76      11.87       0.05
Al       4.06      12.00       0.03
H       0.78       1.61      13.27
H       4.07      22.11      12.95
H       2.36      10.32      24.68
H       5.68      13.57      24.82
H       3.44       8.87       2.33
H       3.18       7.08       4.05
H       0.89       9.50       3.60
H       2.34       2.39       9.08
H       6.39       3.12      10.31
H      -0.01       4.90       8.56
H       0.15      15.11      23.06
H       6.49      16.82      21.26
H       4.11      14.25      21.65
H       5.61      21.52      16.30
H       2.97      20.64      14.92
H       3.21      18.92      16.71
H       4.15      15.40       2.54
H       3.84      17.18       4.29
H       0.32      13.76       3.58
H       2.94      22.01       9.08
H       5.72      20.37      10.11
H       6.03      18.59       8.38
H       3.50       8.71      23.06
H       3.26       6.97      21.29
H       0.84       9.63      21.62
H       2.30       2.27      16.39
H       6.27       3.13      14.97
H      -0.07       4.85      16.74
H       1.74       8.46       5.59
H       0.54       7.85       6.76
H       1.29       6.74       5.61
H       1.88       5.11       7.01
H       2.62       3.97       5.89
H       1.44       3.39       7.10
H       4.97      15.24      19.65
H       3.77      15.85      18.47
H       4.56      16.97      19.58
H       5.14      18.79      18.37
H       5.92      19.92      19.47
H       4.73      20.51      18.29
H       5.60      14.66       5.33
H      -0.02      15.24       6.70
H       5.80      16.40       5.65
H       4.07      19.36       7.02
H       3.28      20.52       5.96
H       4.27      21.10       7.33
H       1.30       6.87      19.58
H       0.51       7.99      18.47
H       1.71       8.60      19.65
H       1.45       3.29      18.37
H       2.64       3.92      19.54
H       1.86       5.02      18.42
C       4.13       1.61      14.46
C       4.25       1.64      10.87
C       0.93      22.29      10.80
C       0.84      22.17      14.39
C       5.61      10.29      23.53
C       5.61      10.31       1.80
C       2.32      13.49       1.86
C       2.29      13.59      23.57
C       5.49       9.27       2.86
C       4.26       8.61       2.99
C       4.12       7.63       3.96
C       5.17       7.34       4.86
C       6.40       8.03       4.75
C       6.55       8.97       3.72
C       4.97       6.37       5.87
C       4.78       5.54       6.75
C       4.61       4.58       7.77
C       3.39       3.86       7.90
C       3.27       2.94       8.94
C       4.35       2.67       9.80
C       5.56       3.36       9.65
C       5.67       4.33       8.66
C       2.15      14.59      22.47
C       0.95      15.30      22.35
C       0.80      16.24      21.34
C       1.83      16.47      20.41
C       3.05      15.74      20.50
C       3.19      14.82      21.55
C       1.64      17.44      19.40
C       1.44      18.30      18.55
C       1.25      19.27      17.54
C       0.04      20.02      17.45
C       6.53      20.94      16.41
C       0.96      21.17      15.50
C       2.16      20.45      15.62
C       2.29      19.50      16.62
C       2.24      14.49       2.96
C       3.25      15.43       3.17
C       3.08      16.41       4.14
C       1.92      16.44       4.94
C       0.92      15.45       4.77
C       1.09      14.50       3.76
C       1.74      17.45       5.91
C       1.52      18.31       6.75
C       1.34      19.33       7.72
C       2.35      20.32       7.89
C       2.17      21.26       8.90
C       1.02      21.28       9.70
C       0.01      20.34       9.49
C       0.18      19.36       8.53
C       5.49       9.27      22.45
C       4.30       8.53      22.35
C       4.17       7.57      21.36
C       5.20       7.34      20.43
C       6.40       8.10      20.51
C      -0.08       9.04      21.53
C       5.01       6.36      19.43
C       4.78       5.49      18.60
C       4.58       4.51      17.60
C       3.37       3.78      17.51
C       3.23       2.84      16.48
C       4.26       2.61      15.56
C       5.47       3.32      15.67
C       5.62       4.28      16.67
C       0.90       7.77       5.72
C       2.27       4.09       6.93
C       4.14      15.95      19.50
C       5.55      19.81      18.44
C       6.31      15.43       5.66
C       3.56      20.33       7.01
C       0.89       7.89      19.50
C       2.27       4.01      18.51
O       5.22       1.30      13.87
O       3.13       1.43      11.43
O       2.00      22.92      11.07
O       6.29      22.64      14.13
O       6.43      22.43      11.41
O       1.91      22.46      13.78
O       2.98       1.15      14.17
O       5.34       1.04      11.16
O       0.83       0.83      12.70
O       4.14      23.01      12.62
O       0.16      10.75      23.82
O       4.53      10.93       1.51
O       3.43      13.35       1.23
O       1.22      13.29      24.19
O       1.26      12.85       1.59
O       3.45      13.12      23.83
O       4.52      10.60      24.11
O       0.13      10.50       1.24
O       2.30      11.08      25.28
O       5.74      12.77       0.01
