139

Zn       4.68       6.34       8.65
Zn       2.34       2.42       8.26
Zn       2.50       4.91      10.76
Zn       4.69       3.65       6.29
H       5.87       8.40      11.10
H      16.04       1.42       1.89
H      10.41      -9.57      17.18
H       2.16      -0.14      10.36
H       7.43       5.68       9.94
H       3.98       5.26      13.42
H       5.28       8.78       6.69
H      -0.15       9.16      12.18
H       1.26       9.72      13.15
H       0.16       8.46      13.81
H      -0.76       0.66       3.86
H      -0.46       3.21       6.91
H      -1.56       1.97       4.79
H      -1.64       0.27       5.38
H       2.95      10.25       8.23
H       6.12       5.95       2.88
H      -1.62       6.14      10.48
H       6.36      -3.58      13.87
H       5.01      -4.08      12.79
H       4.98      -2.46      13.57
H       3.60      12.33       9.43
H       3.02       2.51      16.89
H       2.77       4.50       3.90
H       1.73      -2.42      14.04
H       0.70      -3.15      15.31
H       1.86      -4.18      14.39
H       7.25       5.89       0.39
H       3.00       2.47      14.31
H       8.80       1.34       7.63
H       9.96       2.43       6.79
H       9.05       1.18       5.87
H       6.30       1.36       4.61
H       4.97       0.17       4.78
H       6.94      -5.22      12.33
H       6.60      -0.38       4.26
H       4.74       1.48      10.20
H       9.30      -2.82       8.67
H       7.45      11.05       1.51
H      13.34      -7.54      14.76
H      -4.46      -6.26      16.74
C       5.39       7.50      11.46
C       2.79       8.62       9.21
C       5.43       6.20       4.65
C       4.97       1.33       9.15
C      -0.31       5.15       9.55
C       5.73       7.58       4.83
C      -1.14       4.61       8.52
C       2.21       9.15      10.40
C       1.14       2.97       4.21
C       9.68       4.36       8.54
C      10.91       4.48       8.57
C       5.95       0.50       8.60
C      12.24       4.61       8.55
C      -5.09       4.71       8.50
C      -3.75       4.77       8.46
C       2.69       2.37      12.42
C      -2.52       4.74       8.44
C       7.46      -4.67      11.55
C       8.40      -5.36      10.75
C       9.12      -4.65       9.76
C       8.80      -3.33       9.48
C       7.80      -2.66      10.21
C       2.62       0.96      12.28
C       7.18      -3.33      11.31
C       1.95      11.73      10.80
C       7.31      -1.41       9.76
C       6.74      -0.46       9.24
C       7.55       3.62       7.38
C       2.06      10.51      10.67
C       2.84       0.60      16.79
C       2.84      -0.53      15.92
C       2.67      -1.80      16.51
C       7.33       7.76       0.61
C       8.30       4.29       8.39
C       7.25       8.90       1.44
C       7.50      10.17       0.87
C       2.91      -0.30      14.53
C       6.84       8.69       2.77
C       6.33       8.32       3.82
C       2.29       0.79      10.92
C       2.79       0.13      13.39
C      -5.27      -6.98      16.84
C      -0.93       2.45       0.84
C      16.52       1.57       0.92
C       5.28       7.84       6.13
C      11.22      -8.85      17.09
C      11.88      -8.70      15.85
C      12.87      -7.70      15.73
C      -0.30       2.90       2.02
C       5.02       8.89      14.78
C       4.99       8.06      13.88
C       7.31       5.03       9.08
C       0.36       3.00       3.05
C       5.77       0.69       7.19
C       4.43       5.89      12.66
C      -0.25       3.82       7.77
C       4.95       7.20      12.77
C       0.62       8.86      12.90
C      -1.02       1.01       4.87
C       5.63      -3.22      13.12
C       1.68      -3.18      14.82
C       9.02       1.88       6.70
C       6.05       0.32       4.89
C       1.95       7.97      11.15
C       2.31       3.72       4.49
C       1.05       2.09       5.34
N       5.12       6.46      10.65
N       2.43       2.97      11.26
N       6.26       3.97       7.47
N       2.17       1.98      10.31
N       6.11       4.84       8.52
N       4.77       1.54       6.94
N       4.52       5.46      11.38
N       4.77       6.72       6.68
N       0.98       3.88       8.32
N       2.34       6.90      10.47
N       2.85       3.31       5.65
N       2.08       2.30       6.18
N       2.88       7.29       9.25
N       4.86       5.70       5.75
N       0.94       4.70       9.42
N       4.26       1.93       8.18
O       1.41       7.78      12.37
O       7.12       6.51       1.14
O       2.92       3.08      13.54
O       7.93       2.79       6.39
O       6.47       0.05       6.24
O       0.15       1.15       5.69
O       3.27       9.32       8.15
O       5.65       5.42       3.57
O      -0.66       5.97      10.56
O       6.27      -2.59      12.02
O       3.45      13.21       9.01
O       3.04       1.83      16.19
O       2.74      -2.99      15.80
