172

Cu       8.13       8.30      15.68
Cu       7.13      11.00      16.88
Cu       8.45       8.90      18.81
Cu       9.39      21.01      24.59
Cu      10.91      23.52      23.47
Cu       8.30      22.29      21.96
Cu      21.16       4.50      11.06
Cu      20.07       1.59      10.27
Cu      22.90       2.60       9.24
Cu      -3.25      15.80       1.60
Cu      -1.07      14.17       2.91
Cu      -3.11      15.52       4.91
H       6.47       8.34      12.91
H       5.91      12.40      14.31
H      10.81       6.89      19.53
H      10.23       5.97      15.33
H       5.82      12.98      18.94
H       7.26       9.92      21.64
H      11.36      21.75       0.36
H      13.24      23.83      25.70
H       5.91      20.22      21.24
H       7.49      18.52      24.90
H      17.21      -0.30      21.53
H       7.96      24.38      19.65
H      19.01       5.35      13.22
H      17.60       1.37      12.24
H       1.16       4.46       8.66
H      -1.31       7.15      10.99
H      14.07      25.19       8.53
H      23.70       0.21       7.31
H      -2.35      14.88      25.44
H       1.09      14.00       0.62
H      18.96      17.72       5.64
H      18.51      17.59       1.34
H       0.68      12.51       4.84
H      -1.93      14.37       7.76
H      12.89      21.82       2.71
H       4.13       8.87      11.17
H       2.56      14.33      26.07
H      15.69       1.62      14.45
H      17.40      20.49       5.30
H      12.22       3.82      15.66
H       0.77       9.24      10.55
H       5.42      16.60      24.88
H      14.17      23.30       6.23
H       4.07      13.90      21.06
H      13.60       0.43      17.94
H       2.38      11.71       6.82
C       6.45       9.28      13.45
C       5.85      10.50      13.11
C       6.18      11.36      14.17
C      10.48       6.82      18.49
C      10.98       6.01      17.46
C      10.19       6.34      16.35
C       6.27      12.12      19.42
C       6.24      11.72      20.76
C       7.01      10.55      20.80
C      11.42      21.27      26.66
C      12.84      23.43       0.10
C      12.55      23.01      25.88
C       6.45      19.98      22.15
C       6.28      18.91      23.04
C       7.25      19.11      24.03
C      16.33      -0.87      21.24
C      15.44      -0.63      20.17
C       8.83      24.59      20.27
C      18.83       4.36      12.81
C      17.87       3.41      13.17
C      18.11       2.33      12.31
C       0.40       4.94       9.26
C       0.35       6.26       9.75
C      -0.86       6.32      10.46
C      15.02      25.69       8.38
C      16.09      25.35       7.54
C      22.73       0.08       7.77
C      -1.74      14.30      26.12
C      -0.41      13.87      25.97
C       0.18      14.52       0.32
C      19.02      17.53       4.57
C      18.30      18.09       3.51
C      18.79      17.45       2.37
C      -0.07      13.08       5.38
C      -0.30      13.18       6.76
C      -1.41      14.03       6.87
C      13.75      23.30       1.22
C      13.64      22.51       2.34
C       5.02      10.81      11.97
C       4.28       9.94      11.17
C       0.59      14.16      24.96
C       1.94      14.34      25.19
C      16.92       3.52      14.25
C      15.99       2.61      14.74
C      17.29      19.13       3.47
C      16.98      20.17       4.35
C      12.10       5.11      17.54
C      12.56       4.17      16.63
C       1.32       7.30       9.48
C       1.37       8.61       9.90
C       5.35      17.81      22.95
C       5.08      16.82      23.87
C      16.19      24.30       6.55
C      15.22      23.45       6.03
C       5.60      12.41      21.86
C       4.63      13.40      21.84
C      15.49       0.45      19.21
C      14.56       0.81      18.25
C       0.47      12.50       7.78
C       1.68      11.85       7.64
N       6.92      10.70      15.08
N       7.09       9.41      14.63
N       9.28       7.27      16.70
N       9.46       7.57      18.03
N       7.46      10.27      19.56
N       7.00      11.25      18.70
N      11.53      22.76      25.03
N      10.83      21.68      25.52
N       7.95      20.23      23.75
N       7.46      20.77      22.59
N       9.13      23.80      21.32
N      10.26      24.30      21.92
N      19.15       2.61      11.50
N      19.60       3.87      11.81
N      22.76       5.13      10.39
N      -0.71       4.28       9.65
N      22.26       0.95       8.68
N      21.00       0.55       9.06
N      -0.90      14.54       1.11
N      -1.89      15.24       0.47
N      19.75      16.57       2.72
N      19.90      16.62       4.09
N      -1.81      14.41       5.63
N      -0.98      13.82       4.71
N      15.21      21.97       4.12
N       2.93      10.42       9.13
N       3.80      14.78      23.73
N      14.50       2.68      16.68
N      15.63      23.59       2.33
N      14.97      23.95       1.27
N      14.81      22.72       3.01
N       3.99      12.08      10.50
N       4.81      12.09      11.53
N       3.65      10.79      10.31
N       1.48      14.57      22.98
N       0.36      14.32      23.60
N       2.45      14.59      23.95
N      15.98       4.49      16.00
N      16.85       4.66      15.04
N      15.45       3.26      15.81
N      15.73      20.33       2.48
N      16.50      19.27       2.36
N      16.04      20.88       3.67
N      13.90       4.22      18.46
N      12.94       5.08      18.64
N      13.67       3.66      17.24
N       3.06       8.16       8.44
N       2.38       7.07       8.61
N       2.46       9.11       9.22
N       3.91      16.45      21.97
N       4.60      17.54      21.81
N       4.18      16.01      23.24
N      17.19      23.15       4.95
N      17.37      24.04       5.87
N      15.88      22.75       5.06
N       5.29      12.98      23.97
N       5.95      12.17      23.18
N       4.48      13.72      23.16
N      16.33       2.23      18.23
N      16.55       1.33      19.14
N      15.13       1.91      17.67
N       0.91      11.62       9.75
N       0.05      12.35       9.09
N       1.91      11.32       8.87
