124

Zn       1.85      -6.26      13.33
Zn       3.24      13.48       1.64
Zn       0.36      12.68       0.26
Zn       4.71      -5.33      14.76
H      -0.79      -4.80      14.09
H       7.03      10.14       0.37
H       6.27      -0.00       4.03
H       7.90       6.13       8.60
H       8.05       2.42      10.80
H       7.20       6.10       6.22
H       7.31       1.19       8.83
H       6.69       4.84       4.19
H       2.88       9.80       5.79
H      -0.63      10.40       2.49
H       3.53       8.98       8.04
H       1.49       4.58      14.60
H      -1.42       7.31       6.09
H       2.79       8.18      10.20
H      -1.01       6.98       8.53
H      -4.60      13.26       1.10
H       3.36       4.89      14.42
H       6.55       6.67      10.97
H      -1.42      -5.70      12.20
H       4.31      -1.94      14.41
H      -2.89      -4.78      11.71
H       3.34      11.13       4.04
H      -5.20       3.55      12.72
H       0.62      -3.33      12.63
H       7.39       3.84       2.36
H      -2.48      13.09       1.40
H      -1.87       6.69      10.69
H       2.73       7.82      12.22
H       4.83       9.47       2.02
H      -1.77       7.98       4.01
H       4.84       7.10       9.43
H       8.02      -5.25      14.65
H       6.30      12.68       2.05
H      -4.41       7.13      10.43
H      -2.29       3.09      13.11
H       0.30      -1.01      11.87
H      -0.71       1.20      11.91
C      -0.69      -5.75      14.59
C      -4.52       6.35      11.17
C       0.80       7.93      12.11
C       6.59       0.84       3.44
C      -1.47       3.65      13.54
C       0.25       7.43      10.91
C      -0.11       3.30      13.66
C      -5.03       5.05      11.04
C      12.07       0.04       0.84
C       2.19       0.36      14.27
C       1.76      -0.67      13.43
C       6.75       2.20       3.79
C       0.70      -0.28      12.57
C       0.12       0.99      12.59
C       0.55       2.02      13.47
C       0.37      10.74       2.70
C       1.63       1.64      14.28
C       6.22       9.44       0.66
C       6.79       7.94       0.70
C      -5.55       4.37       9.85
C       6.78       2.87       5.10
C       7.13       5.01       6.26
C       1.26      10.29       3.69
C       6.85       4.30       5.12
C       6.91       2.23       6.33
C       7.22       2.93       7.53
C       7.37       4.35       7.49
C       3.48      -2.50      14.00
C       7.79       5.04       8.66
C       7.86       2.97       9.88
C       7.44       2.27       8.77
C       1.04       9.34       4.78
C       0.80       7.56       9.56
C       2.26      -2.03      13.48
C       2.53       8.54       8.13
C       2.12       8.08       9.36
C      -0.00       7.39       8.43
C       0.39       7.87       7.16
C       1.66       8.52       7.02
C       2.40      11.10       3.49
C       1.94       9.23       5.83
C      -0.16       8.56       4.88
C      -0.47       7.85       6.03
C      -3.33      -6.39      13.17
C      -1.07       7.11      11.28
C      -3.05      -6.80      14.47
C       8.50      13.82       0.31
C       4.09       5.57      13.98
C       4.19       5.86      12.68
C       4.82       6.98      12.26
C       5.76       7.42      11.13
C       1.61      -3.21      13.08
C      -2.51      -5.76      12.05
C       7.15       2.80       2.57
C       2.75      -0.35       0.92
C       0.46       4.41      14.31
C       2.03       0.65       0.23
C      -4.91       4.52      12.34
C      11.39       1.21       0.47
C      11.10      -0.68       1.57
N       4.27       1.07       0.16
N       0.93      11.73       1.98
N       3.55      -3.84      13.90
N       2.19      11.95       2.47
N       2.37      -4.28      13.33
N       7.27       1.87       1.62
N       4.08      -0.11       0.84
N      -1.28       7.44      12.57
N      -0.48       5.32      14.59
N      -4.37       5.43      13.17
N      10.12       1.19       0.91
N       9.94       0.00       1.61
N      -4.13       6.57      12.45
N       4.75      -6.40      13.09
N      -1.67       4.85      14.11
N       6.92       0.66       2.14
Cl       8.58       7.84       0.49
Cl       6.32       7.05       2.18
Cl       6.79       0.50       6.45
O       6.89      -5.86      12.38
O       5.63       9.99       1.81
O      -1.01       8.56       3.80
O       5.21       7.87       9.90
