244

Zn      23.09      18.70      16.90
Zn      13.00       1.97      14.26
Zn      19.86      18.66      16.83
Zn      12.67       3.74      16.94
Zn      19.83       8.27      23.60
Zn      23.00       8.39      23.79
Zn      21.28       7.20      26.28
Zn      21.55       5.51      23.72
Zn      12.78      14.09      10.10
Zn      12.96      12.34       7.46
Zn      11.34      15.15       7.42
Zn      14.42      15.22       7.53
Zn      22.24       7.87       0.57
Zn      23.74      10.67       0.74
Zn       5.88       7.91       0.65
Zn      10.58      12.78      30.55
H      16.90       6.95      21.13
H      25.96      19.96      19.48
H      15.17      15.66      12.98
H      19.14      18.15      11.39
H      19.33      14.91      19.07
H      23.53      12.08      21.42
H      12.94       5.36      11.45
H      12.78      10.72      12.98
H      24.61      18.14      11.37
H       9.77      15.64      12.91
H       9.69       5.83      19.49
H       4.87       3.51      21.12
H      25.48       9.88      30.88
H      25.93      10.15      25.96
H      18.36       8.81      29.16
H      13.56      11.24      27.64
H      30.08      19.14      25.65
H      29.92      18.47      31.19
H      26.20      12.74       3.21
H      10.57      10.31       4.89
H      15.97      10.34       4.94
H      20.71      12.74       3.23
H       6.41       1.33       5.19
H      21.76       4.13       2.87
H      13.38       5.07      19.48
H      19.60       3.40      23.00
H      17.10      18.31      15.78
H      15.92      17.54       8.58
H      23.23       7.05      28.52
H       9.85      10.97      28.33
H       9.82      15.10       4.87
H       8.63       8.74       1.36
C      24.19      18.26      14.20
C      19.03      18.20      14.01
C      21.45      16.62      18.20
C      10.09       3.28      18.26
C      15.16       3.39      18.55
C      12.85       4.91      14.27
C      21.41      10.39      22.32
C      23.82       8.72      26.60
C      18.75       8.64      26.33
C      21.42       4.26      26.36
C      19.00       5.81      22.20
C      24.10       6.04      22.39
C      12.86      11.16      10.16
C      10.56      12.77       5.80
C      10.20      15.51      10.09
C      12.90      17.26       6.09
C      15.18      15.77      10.36
C      15.54      12.89       6.16
C      21.14      10.19       2.01
C       6.71      10.34       2.15
C       4.27       5.86       1.98
C      13.15      11.37      30.46
C      27.68      11.16      30.24
C      29.99      15.70      30.50
C      16.14       4.08      19.45
C      18.08       5.15      21.22
C      16.04       5.41      19.91
C      18.22       3.84      20.72
C      16.99       5.92      20.78
C      17.25       3.33      19.85
C      18.04      17.50      13.12
C      16.24      16.36      11.25
C      16.91      16.77      13.56
C      17.38      17.06      10.81
C      16.04      16.22      12.63
C      18.26      17.61      11.74
C      20.34      14.65      19.37
C      22.52      12.35      21.13
C      21.45      15.40      19.00
C      21.41      11.60      21.51
C      22.13      13.46      20.36
C      20.73      13.54      20.15
C      12.91       6.23      12.09
C      12.82       9.84      12.34
C      12.87       6.14      13.47
C      12.87       9.93      10.96
C      12.85       8.50      12.76
C      12.90       7.58      11.68
C      25.38      17.72      12.01
C      28.59      16.05      12.27
C      25.29      17.72      13.39
C      28.69      16.05      10.88
C      27.38      16.66      12.68
C      26.58      17.10      11.60
C       8.91       5.08      19.62
C       5.67       4.24      21.01
C       8.99       3.81      19.06
C       5.60       5.51      21.57
C       6.88       4.08      20.30
C       7.70       5.24      20.33
C      24.75       9.38      27.59
C      26.69      10.60      29.25
C      24.62       9.33      28.99
C      26.80      10.69      27.85
C      25.59       9.93      29.80
C      25.84      10.08      27.04
C      17.57       9.21      28.52
C      14.34      10.83      28.28
C      17.65       9.19      27.14
C      14.25      10.84      29.66
C      15.55      10.23      27.86
C      16.36       9.80      28.94
C      30.04      19.39      26.71
C      29.95      18.22      30.14
C      30.00      20.70      27.17
C      29.98      16.91      29.68
C      29.96      19.12      29.06
C      30.01      18.49      27.79
C       9.51      12.18       4.91
C       7.71      10.89       3.14
C       8.36      12.85       4.44
C       8.83      10.20       3.64
C       7.49      12.21       3.57
C       9.71      10.85       4.51
C      16.74      11.09       4.81
C      19.94      11.98       3.37
C      16.65      12.36       5.36
C      20.04      10.71       2.83
C      18.75      12.12       4.10
C      17.95      10.95       4.09
C       5.39       1.59       4.91
C       3.19       3.87       3.16
C       4.30       0.83       5.28
C       4.28       4.64       2.79
C       3.59       2.77       3.94
C       4.99       2.71       4.14
S      22.96      14.77      19.60
S      19.90      12.24      20.93
S      12.83       7.68      14.28
S      12.93       8.39      10.16
S      26.64      16.99      14.20
S      27.32      16.76      10.08
S       7.61       2.81      19.40
S       6.98       6.51      21.25
S      16.28       9.89      26.34
S      15.62      10.13      30.46
S      29.94      20.84      28.90
S      30.02      16.77      27.95
S      18.01      13.38       5.01
S      18.69       9.68       3.19
S       2.78       1.46       4.71
S       5.80       4.02       3.38
S      14.78       6.60      19.37
S      19.63       2.75      21.03
S      16.54      16.37      15.28
S      17.90      17.21       9.08
S      23.22       8.62      29.88
S      28.04      11.65      26.96
S       7.83      14.50       4.97
S       9.19       8.46       3.35
O      21.47      19.58      16.22
O      24.28      18.12      15.47
O      20.15      18.47      13.50
O      20.32      17.02      17.75
O      23.23      18.84      13.56
O      22.59      17.19      18.03
O      18.67      18.51      15.20
O      18.60      19.70      17.91
O      13.95       3.83      18.50
O      11.04       4.08      17.97
O      15.57       2.37      17.93
O      12.81       3.81      13.62
O      12.87       5.06      15.54
O      21.41       7.36      24.34
O      20.27       9.89      22.61
O      23.85       9.17      25.42
O      19.75       8.17      26.97
O      22.56       9.93      22.68
O      18.59       8.67      25.06
O      23.10       7.74      26.99
O      21.30       5.38      26.99
O      19.73       5.07      22.96
O      21.54       4.12      25.09
O      18.98       7.08      22.25
O      24.26       7.23      22.86
O      23.08       5.28      22.55
O      12.87      14.18       8.14
O      12.76      12.26      10.79
O      11.30      11.95       6.43
O      10.06      15.57       8.82
O      12.96      11.01       8.89
O      11.21      15.06      10.74
O      10.68      14.05       5.86
O      11.76      16.76       6.38
O      15.05      16.22       9.16
O      14.04      16.80       6.44
O      14.44      14.88      10.87
O      14.53      12.12       6.33
O      15.69      14.08       6.62
O      23.86       8.84       0.02
O      21.06       8.96       1.67
O      25.18      10.93       2.09
O       5.40       6.43       1.80
O      22.09      11.00       1.72
O      22.73       6.23       1.52
O       7.06       9.36       1.41
O      13.22      11.22      31.73
O      28.88      11.39      29.85
O      12.20      11.95      29.83
O      27.26      11.33      31.42
O      30.02      15.86      31.77
O      29.97      14.58      29.87
O      13.45       5.96      19.95
O      14.99       7.82      20.09
O      14.77       6.59      17.93
O      28.09      20.14      22.59
O      27.96      19.15      20.38
O      20.82       3.50      20.74
O      16.23      17.81      15.89
O      15.30      15.66      15.31
O      17.73      15.82      15.87
O      16.74      18.10       8.47
O      19.09      18.02       9.05
O      17.89      15.89       8.51
O      23.34       7.08      29.52
O      23.48       8.72      31.29
O      22.02       9.18      29.31
O       9.79      10.88      27.33
O      27.84      11.46      25.56
O      28.05      12.97      27.53
O       8.99      15.42       4.39
O      26.24      14.84       4.25
O      27.44      14.51       6.41
O       9.50       8.45       1.79
O      10.43       8.14       4.00
O       7.99       7.71       3.63
