58

Zn       8.29       6.39       7.25
Zn       5.39       6.75       7.09
H       5.57       0.19       9.91
H       8.11      12.95       4.44
H       9.98       8.38       6.16
H       3.70       4.77       8.20
H       7.12       4.13       3.22
H       6.56       9.02      11.12
C       6.99       9.12       7.59
C      11.27       5.79       7.70
C       1.00       7.17       6.83
C      12.68       5.97       7.52
C       7.03       6.89       4.60
C       6.66       6.26       9.74
C       7.05       6.84       3.16
C       6.63       6.30      11.19
C       6.97       6.72       1.94
C       6.71       6.42      12.41
C       6.86       6.59       0.61
C       6.69       4.02       6.75
C       6.82       6.56      13.74
C       6.51       2.53       6.63
C       7.17      10.62       7.71
C       7.17      12.71       8.96
C       6.51       0.43       5.39
C       7.01      11.33       8.93
C       6.67       1.81       5.41
C       7.48      11.32       6.56
C       6.20       1.82       7.79
C       7.00       2.45       4.10
C       7.65      12.74       6.55
C       6.68      10.70      10.25
C       6.02       0.41       7.79
C       1.58       5.07       7.98
C      12.10       8.07       6.37
C       2.91       5.42       7.83
C      10.77       7.73       6.53
C       2.41       7.35       6.64
N      10.38       6.62       7.18
N       3.30       6.53       7.17
Cl       6.03       2.68       9.28
Cl       7.65      10.46       5.06
Cl      10.59       4.54       8.64
Cl       3.09       8.59       5.69
Cl       1.33       3.53       8.68
Cl      12.36       9.62       5.68
O       8.05       8.43       7.57
O       6.86       3.80       4.11
O       6.34      11.32      11.24
O       6.81       9.35      10.23
O       5.63       4.71       6.77
O       5.80       8.71       7.47
O       7.88       4.44       6.87
O       8.14       6.77       5.20
O       5.54       6.37       9.14
O       5.87       7.02       5.12
O       7.81       6.13       9.23
O       7.35       1.82       3.11
