144

Mg       3.56      18.87      10.15
Mg       1.25      17.44      11.26
Mg      -1.07      17.19       9.47
Mg      -1.25      -1.04      20.73
Mg       1.07       0.40      19.62
Mg       3.39       0.64      21.42
H       1.46       0.44      25.19
H      -2.44       0.08      26.95
H       3.52      -0.27      24.68
H       3.52      -1.13      28.34
H      -1.44      -1.56      29.79
H       2.03      16.53       1.10
H       3.78      -4.20      18.67
H      -0.12      -5.54      17.48
H      -1.11      -3.41      18.31
H      -1.11      -6.14      15.74
H       0.88      -7.18      14.64
H      -0.28      26.45      13.77
H      -0.86       3.77      17.91
H       2.19       5.46      17.34
H       1.21       3.68      18.78
H       1.20       7.28      17.70
H       3.19       8.75      17.34
H       4.35      10.52      16.02
H       0.85      17.40       5.70
H       4.75      17.76       3.94
H      -1.21      18.11       6.20
H      -1.21      18.97       2.55
H       3.76      19.40       1.10
H       0.28       1.30      29.79
H      -1.46      22.04      12.22
H       2.44      23.38      13.40
H       3.43      21.24      12.58
H       3.43      23.98      15.15
H       1.44      25.02      16.25
H       2.60      -8.62      17.12
H       3.17      14.07      12.97
H       0.12      12.37      13.54
H       1.11      14.15      12.11
H       1.11      10.56      13.19
H      -0.88       9.09      13.54
H      -2.03       7.32      14.87
C       0.76       0.34      22.65
C      -0.15       0.13      23.80
C       0.39       0.25      25.08
C      -0.41       0.17      26.22
C      -1.80       0.05      26.06
C      -2.35      -0.13      24.80
C      -1.55      -0.14      23.64
C       1.86       0.08      28.93
C       3.09      -0.53      29.14
C      -3.17      -0.39      30.36
C      -1.90      -0.99      30.60
C       1.06      16.99       0.91
C       3.07      -1.96      19.85
C       2.17      -2.84      19.10
C       2.71      -4.01      18.56
C       1.91      -4.97      17.92
C       0.51      -4.77      17.90
C      -0.04      -3.59      18.37
C       0.76      -2.57      18.95
C       4.18      -7.27      16.49
C       5.41      -7.14      15.86
C      -0.86      -8.27      15.36
C       0.42      -8.17      14.73
C      -1.26      26.38      14.25
C      -1.56       1.62      19.26
C       4.48       2.71      18.88
C      -1.92       3.77      18.13
C       4.22       4.79      17.62
C       2.83       4.71      17.81
C       2.28       3.71      18.59
C       3.08       2.71      19.18
C      -0.46       7.18      16.35
C       0.78       7.67      16.77
C       1.46       8.66      16.04
C       2.73       9.16      16.45
C       3.38      10.13      15.72
C       1.56      17.49       8.23
C       2.46      17.71       7.09
C       1.92      17.59       5.80
C       2.72      17.66       4.66
C       4.12      17.78       4.82
C       4.67      17.96       6.08
C       3.87      17.97       7.25
C       0.45      17.75       1.95
C      -0.78      18.36       1.75
C       5.49      18.23       0.52
C       4.22      18.82       0.29
C       1.26       0.85      29.97
C      -0.76      19.79      11.03
C       0.15      20.67      11.79
C      -0.40      21.85      12.33
C       0.41      22.80      12.96
C       1.80      22.60      12.98
C       2.35      21.42      12.51
C       1.55      20.41      11.94
C      -1.86      25.10      14.40
C      -3.09      24.97      15.03
C       3.17      26.10      15.52
C       1.90      26.00      16.16
C       3.57      -8.55      16.63
C       3.87      16.22      11.62
C      -2.17      15.12      12.01
C       4.24      14.07      12.76
C      -1.91      13.04      13.26
C      -0.51      13.12      13.08
C       0.04      14.12      12.29
C      -0.76      15.12      11.70
C       2.77      10.65      14.54
C       1.54      10.16      14.11
C       0.86       9.17      14.84
C      -0.42       8.67      14.44
C      -1.06       7.70      15.17
N       0.09       0.26      27.54
N       1.31      -0.08      27.65
N       2.40      -6.14      17.34
N       3.62      -6.07      16.99
N      -2.23       5.89      16.89
N      -1.01       6.16      17.13
N       2.23      17.58       3.35
N       1.01      17.92       3.24
N      -0.09      23.98      13.54
N      -1.31      23.90      13.90
N       4.54      11.95      13.99
N       3.32      11.68      13.75
O       0.37      17.07       8.06
O       2.01      17.74       9.42
O       4.45      18.20       8.43
O      -1.95      20.15      10.75
O      -0.31      18.64      10.65
O       2.14      19.26      11.55
O       2.68      16.28      12.07
O       4.32      17.12      10.81
O      -0.18      16.03      10.91
O       1.95       0.76      22.82
O       0.31       0.09      21.47
O      -2.14      -0.37      22.46
O       4.26      -2.31      20.13
O       2.63      -0.80      20.23
O       0.18      -1.43      19.34
O      -0.37       1.55      18.82
O      -2.01       0.71      20.07
O       2.49       1.80      19.98
