110

Zn       5.09       6.14       8.74
Zn       5.07       9.15       8.91
H       5.74      -0.81      10.44
H       4.93      -0.54       7.49
H       4.28       7.07       0.07
H       6.28       9.40       0.04
H       8.11       8.09       6.40
H       9.37       8.32       4.29
H       2.07       7.84       6.39
H       0.84       8.16       4.29
H       7.13      10.26      10.07
H       7.70      11.74      10.70
H       7.02      13.45      11.63
H       7.61      14.35      10.35
H       2.94      10.28       7.89
H       2.32      11.77       7.35
H       2.94      13.71       6.67
H       2.07      14.00       8.05
H       7.27       0.39       9.94
H       8.05       1.87      10.01
H       7.26       3.59      11.04
H       6.85       5.06      10.33
H       3.15       0.35       7.32
H       3.04       1.67       6.29
H       2.99       5.03       7.68
H       2.35       3.53       7.21
H       5.16       5.35       5.60
H       6.07       4.80       4.27
H       5.74       5.36       1.12
H       5.01       4.62       2.46
H       4.95      10.20       5.71
H       4.13      10.85       4.39
H       4.65      10.37       1.08
H       4.97      11.13       2.58
H       5.28       4.62      16.37
H       5.37       4.02      14.80
H       4.65       5.10      11.79
H       3.99       4.38      13.19
H       6.00       9.55      16.75
H       5.48      10.43      15.40
H       5.38       9.90      12.22
H       6.38      10.29      13.51
C       5.07       7.78       6.23
C       2.46       7.57       8.88
C       5.09       7.56      11.43
C       7.68       7.66       8.84
C       4.05      11.94       8.36
C       4.01      13.35       8.38
C       4.91      14.05       9.21
C       5.86      13.31       9.94
C       5.92      11.90       9.77
C       4.89      15.50       9.42
C       5.20      -0.18       8.48
C       4.18       1.99       7.96
C       5.17       1.27       8.65
C       6.12       1.98       9.41
C       6.05       3.39       9.44
C       4.17       3.40       8.04
C       5.09       7.82       4.75
C       5.03       9.06       4.05
C       5.09       9.09       2.64
C       5.08       7.88       1.91
C       5.11       6.65       2.60
C       5.16       6.60       4.00
C       4.97       7.83       0.45
C       5.35       7.06      17.18
C       5.35       8.42      15.13
C       5.23       7.14      15.73
C       5.04       6.01      14.91
C       4.94       6.15      13.51
C       5.11       7.43      12.90
C       5.32       8.57      13.74
C       9.18       7.67       8.87
C       9.88       7.83       7.64
C       9.87       7.51      10.06
C       9.20       8.03       6.41
C       9.90       8.16       5.23
C       0.96       7.61       8.89
C       0.26       7.49      10.07
C       0.28       7.78       7.64
C       0.98       7.90       6.41
C       0.29       8.08       5.23
Br       1.22       7.35      11.70
Br       8.87       7.31      11.67
N       5.01      11.23       9.02
N       5.10       4.08       8.75
N       6.90      11.19      10.42
N       6.77      13.98      10.80
N       3.14      11.24       7.61
N       3.00      14.05       7.63
N       7.17       1.38      10.14
N       7.01       4.06      10.17
N       3.13       1.36       7.26
N       3.19       4.08       7.35
N       5.25       5.32       4.58
N       5.06       5.45       1.87
N       4.94      10.31       4.70
N       5.12      10.33       1.99
N       4.93       4.71      15.42
N       4.73       4.96      12.80
N       5.40       9.57      15.93
N       5.49       9.87      13.23
O       4.79       6.67       6.81
O       5.33       8.86       6.89
O       3.05       8.69       8.70
O       3.01       6.44       9.02
O       4.86       8.71      10.90
O       5.31       6.51      10.73
O       7.13       6.58       8.51
O       7.10       8.76       9.12
