76

Gd       1.27       9.13       8.74
Gd       9.13       1.27       1.75
Gd       1.27       1.27       5.24
Gd       9.13       9.13      12.24
H       5.49       9.67       9.02
H       4.91       0.72       2.03
H       0.72       5.49       5.53
H       9.67       4.91      12.52
H       5.49       0.72       4.96
H       4.91       9.67      11.95
H       0.72       4.91       8.46
H       9.67       5.49       1.47
H       9.22      10.40       6.99
H       1.18      -0.00      13.99
H      10.40       9.22       3.50
H      10.40       1.18      10.49
C       3.85      10.40       6.99
C       6.55       0.00       0.00
C      -0.00       3.85       3.50
C      10.40       6.55      10.49
C       8.20       9.65       9.37
C       2.19       0.75       2.38
C       0.75       8.20       5.87
C       9.65       2.19      12.87
C       8.20       0.75       4.61
C       2.19       9.65      11.61
C       0.75       2.19       8.11
C       9.65       8.20       1.12
C       5.34      10.40       6.99
C       5.05      -0.00      13.99
C       0.00       5.34       3.50
C       0.00       5.05      10.49
C       6.04       9.99       8.14
C       4.36       0.41       1.15
C       0.41       6.04       4.64
C       9.99       4.36      11.63
C       6.04       0.41       5.85
C       4.36       9.99      12.84
C       0.41       4.36       9.34
C       9.99       6.04       2.35
C       7.44      10.01       8.14
C       2.96       0.39       1.15
C       0.39       7.44       4.65
C      10.01       2.96      11.64
C       7.44       0.39       5.84
C       2.96      10.01      12.83
C       0.39       2.96       9.34
C      10.01       7.44       2.34
C       8.13      10.40       6.99
C       2.27      -0.00      13.99
C      10.40       8.13       3.50
C      10.40       2.27      10.49
O       3.26       9.51       7.69
O       7.13       0.89       0.70
O       0.89       3.26       4.20
O       9.51       7.13      11.19
O       3.26       0.89       6.29
O       7.13       9.51      13.28
O       0.89       7.13       9.79
O       9.51       3.26       2.79
O       7.60       9.55      10.48
O       2.80       0.85       3.49
O       0.85       7.60       6.99
O       9.55       2.80      13.98
O       7.60       0.85       3.50
O       2.80       9.55      10.49
O       0.85       2.80       7.00
O       9.55       7.60       0.01
O       9.47       9.48       9.29
O       0.92       0.92       2.29
O       0.92       9.47       5.79
O       9.48       0.92      12.78
O       9.47       0.92       4.70
O       0.92       9.48      11.69
O       0.92       0.92       8.20
O       9.48       9.47       1.20
