162

Zn      -2.47      -4.89       8.65
Zn       8.67      13.81       6.73
Zn       2.34       4.97       8.59
Zn       3.87       3.96       6.80
Zn       8.59      -0.98      15.35
Zn      -2.38       9.90       0.03
H       5.56       2.49      13.92
H       0.64       6.43       1.46
H      -1.91      -0.01       6.17
H       8.12       8.93       9.21
H      -2.48       0.34       7.80
H       8.69       8.58       7.59
H      -1.09       2.22       7.93
H       7.30       6.70       7.46
H      -0.64       1.95       6.25
H       6.84       6.97       9.14
H      -0.01      -1.46       5.78
H       6.22      10.39       9.61
H       1.34       0.42       5.72
H       4.86       8.51       9.67
H      -4.03      -2.46      12.13
H      10.24      11.38       3.25
H      -4.90      -3.98      12.14
H      11.10      12.90       3.25
H      -6.48      -3.15      13.64
H      12.68      12.07       1.74
H      -5.51      -1.67      13.77
H      11.72      10.59       1.62
H       4.24       3.48      12.27
H       1.96       5.44       3.12
H      -4.55      -0.70      10.46
H      10.75       9.63       4.93
H      -5.72       0.04      12.23
H      11.93       8.88       3.16
H      11.45      -2.99       9.43
H      -5.24      11.91       5.96
H      11.83      -4.29      10.55
H      -5.63      13.21       4.84
H      10.49      -3.34      12.18
H      -4.28      12.26       3.21
H       7.99       0.72      10.82
H      -1.78       8.21       4.56
H       6.55       1.57       9.21
H      -0.35       7.36       6.18
H       3.77       1.86      11.74
H       2.44       7.06       3.64
H       6.65      -0.18      11.53
H      -0.44       9.10       3.85
H       5.20       0.87      13.29
H       1.01       8.05       2.09
H       6.17       4.66      11.18
H       0.04       4.26       4.21
H       7.16       3.83       9.98
H      -0.96       5.09       5.41
H       8.54       3.06      11.71
H      -2.33       5.86       3.68
H       7.49       3.81      12.91
H      -1.29       5.11       2.48
H       0.23      -1.59       9.55
H       5.97      10.51       5.84
H      -1.14      -0.52       9.81
H       7.35       9.44       5.58
H       0.32       1.31       9.80
H       5.89       7.62       5.59
H       1.68       0.24       9.44
H       4.53       8.69       5.94
H       2.31      -0.24       7.03
H       3.89       9.16       8.35
C      -4.62      -3.36       9.57
C      10.83      12.28       5.81
C      -1.57       0.21       7.20
C       7.78       8.72       8.19
C      -0.80      -1.02       7.74
C       7.01       9.94       7.65
C       0.74       1.09       7.69
C       5.47       7.83       7.70
C       1.29       0.02       6.74
C       4.92       8.90       8.65
C      -0.69       1.48       7.24
C       6.89       7.45       8.15
C      -5.03      -2.90      12.01
C      11.23      11.82       3.37
C      -6.01      -2.34      13.05
C      12.22      11.27       2.33
C      -5.57      -1.09      10.38
C      11.78      10.02       5.00
C      11.81      -3.20      10.44
C      -5.61      12.12       4.95
C      -5.54      -2.64      10.58
C      11.75      11.56       4.80
C      -1.69      -2.26       7.74
C       7.90      11.18       7.65
C      11.63      -1.54      12.35
C      -5.42      10.46       3.04
C      -6.42      -0.46      11.54
C      12.62       9.38       3.84
C      10.87      -2.57      11.49
C      -4.67      11.50       3.89
C       6.99       1.75      12.46
C      -0.79       7.17       2.92
C       4.56       3.36       9.54
C       1.65       5.56       5.84
C       1.61       2.35       7.70
C       4.60       6.58       7.69
C      -1.66       7.80       1.85
C       7.87       1.12      13.54
C      10.78      -0.99      13.50
C      -4.58       9.91       1.89
C       6.03       1.40      10.15
C       0.18       7.53       5.23
C       6.59       3.69      10.91
C      -0.39       5.24       4.48
C       5.55       1.87      13.01
C       0.65       7.05       2.38
C       7.49       3.14      12.04
C      -1.29       5.79       3.35
C       6.97       0.82      11.23
C      -0.76       8.10       4.16
C       5.41       2.72      10.63
C       0.80       6.20       4.76
C       4.63       2.51      11.94
C       1.57       6.41       3.45
C      -0.28      -0.71       9.15
C       6.48       9.63       6.23
C       0.67       0.52       9.12
C       5.54       8.41       6.27
C       0.39      -1.23       6.77
C       5.82      10.16       8.61
Br      11.23       1.07      11.00
Br      -5.03       7.85       4.39
Cl       9.39      -1.92      10.71
Cl      -3.18      10.84       4.68
Cl      12.67      -0.61       8.75
Cl      -6.47       9.53       6.64
Cl       4.74       0.20       9.72
Cl       1.47       8.73       5.67
Cl       1.37      -2.70       7.19
Cl       4.83      11.62       8.19
O      -3.65      -4.03      10.06
O       9.86      12.95       5.33
O      -1.33       8.98       1.47
O       7.54      -0.06      13.92
O       9.82      -1.71      13.91
O      -3.61      10.64       1.48
O      -7.61       0.11      14.01
O      13.82       8.81       1.37
O      13.87      -3.27       8.34
O      -7.66      12.19       7.05
O      -1.46      -3.14       8.63
O       7.67      12.06       6.76
O      -2.59      -2.33       6.83
O       8.80      11.25       8.55
O       3.56       4.06       9.93
O       2.65       4.87       5.46
O       4.94       3.20       8.34
O       1.27       5.72       7.05
O       1.25       3.27       8.50
O       4.95       5.65       6.89
O       2.60       2.39       6.90
O       3.60       6.53       8.49
O      -2.64       7.12       1.39
O       8.85       1.80      14.00
