53

Zn       3.58       5.41       5.95
Zn       6.49       5.38       5.98
H       5.48       9.47       7.88
H       1.35       9.08       8.88
H       2.60       7.42       7.54
H       1.37       3.91       4.75
H       4.39       8.59       3.29
H       3.99      10.00       1.31
H       3.94       1.53       1.51
H       4.36       2.60       3.69
H       8.71       3.91       4.75
H       7.49       7.36       7.62
H       8.73       9.04       8.93
H       5.95       0.80      10.23
C       4.94       7.98       5.77
C       4.18      10.47       2.28
C       4.13       0.91       2.39
C       4.37       1.51       3.61
C       4.63       0.72       4.77
C       4.67      10.26       4.65
C       4.95       9.48       5.81
C       5.25      10.08       7.01
C       5.18       0.53       7.14
C       4.91       1.33       6.03
C       8.57       7.37       7.61
C       5.13       5.51       8.55
C       9.28       8.31       8.33
C       0.81       8.33       8.30
C       1.51       7.41       7.55
C       0.82       6.44       6.79
C       9.26       6.43       6.81
C       9.27       4.63       5.34
C       0.80       4.63       5.34
C       4.93       2.83       6.09
C       5.11       5.29       3.36
C       5.09       5.51      10.00
C       5.11       5.48      11.22
C       5.06       5.44       0.70
C       5.09       5.36       1.92
C       4.41       9.67       3.38
C       5.43       1.16       8.46
N       8.58       5.50       6.06
N       1.50       5.52       6.04
O       3.84       7.41       5.50
O       6.04       7.40       6.05
O       4.03       5.73       7.95
O       6.27       5.32       8.03
O       3.81       3.41       6.22
O       6.07       3.38       5.90
O       3.99       5.06       3.92
O       6.23       5.47       3.93
O       5.30       2.35       8.71
O       5.82       0.27       9.42
