96

Zn       1.88       0.05      17.48
Zn       4.64      10.86      17.50
Zn       5.53      10.83       0.01
Zn       2.65      10.83      34.98
H       1.58      10.82       4.35
H       1.78      10.82       6.82
H       6.08      10.81       6.45
H       5.85      10.80       3.97
H       1.34      10.83      11.08
H       5.63      10.82      10.65
H       5.88      10.83      13.11
H       1.61      10.85      13.55
H       5.23      10.82       8.56
H       2.18      10.82       8.95
H       1.44      10.82      30.61
H       1.67      10.82      28.14
H       5.96      10.82      28.56
H       5.71      10.82      31.04
H       1.27      10.83      23.89
H       5.56      10.81      24.36
H       5.83      10.83      21.89
H       1.56      10.85      21.41
H       5.13      10.83      26.44
H       2.09      10.81      26.02
H       0.57       6.68      17.45
H       4.87       6.75      17.52
H       0.63       4.17      17.45
H       0.09       6.58       0.01
H       2.58       6.71       0.02
H       6.78       4.08       0.01
C       2.73       8.36      17.48
C       3.84      10.85      14.97
C       2.75       2.55      17.49
C       3.81      10.85      20.01
C       4.74       8.29       0.01
C       3.64      10.81       2.52
C       4.64       2.48       0.01
C       3.48      10.81      32.46
C       3.70      10.81       4.01
C       2.56      10.82       4.82
C       2.68      10.82       6.21
C       3.95      10.82       6.82
C       5.09      10.81       5.99
C       4.97      10.81       4.61
C       4.17      10.82       8.26
C       3.23      10.82       9.23
C       2.34      10.83      11.52
C       3.46      10.83      10.67
C       4.74      10.83      11.27
C       4.89      10.83      12.66
C       3.76      10.84      13.49
C       2.48      10.84      12.90
C       3.56      10.81      30.98
C       2.43      10.82      30.15
C       2.57      10.82      28.77
C       3.84      10.82      28.16
C       4.97      10.82      29.01
C       4.84      10.82      30.39
C       4.08      10.82      26.73
C       3.15      10.82      25.75
C       2.28      10.83      23.45
C       3.39      10.82      24.31
C       4.68      10.82      23.72
C       4.83      10.83      22.34
C       3.71      10.84      21.50
C       2.43      10.84      22.07
C       2.76       4.05      17.49
C       2.71       6.87      17.48
C       3.95       4.81      17.50
C       1.51       6.14      17.46
C       3.93       6.19      17.50
C       1.55       4.75      17.47
C       4.65       3.98       0.01
C       4.74       6.80       0.01
C       3.48       4.75       0.02
C       5.93       6.06       0.01
C       3.51       6.14       0.02
C       5.87       4.67       0.01
O       1.59       8.98      17.48
O       3.86       8.92      17.49
O       4.99      10.84      15.55
O       2.65       0.02      15.59
O       3.87       1.95      17.49
O       1.60       1.98      17.48
O       2.62       0.02      19.38
O       4.97      10.84      19.44
O       5.88       8.90       0.01
O       3.60       8.87       0.00
O       2.49      10.80       1.93
O       4.75      10.81       1.91
O       3.33       1.90      34.98
O       5.78       1.89       0.01
O       4.59      10.82      33.09
O       2.32      10.81      33.04
F       5.17       4.21      17.53
F       2.25       4.17       0.03
