72

Mn       0.69       9.33       4.09
Mn       3.03       7.43       4.70
Mn      -1.65       8.91       6.04
Mn       1.66      -0.78      10.74
Mn      -0.68       1.13      10.13
Mn       4.00      -0.36       8.79
H       3.27      11.69       8.40
H      -1.41       9.99       0.50
H       0.93       4.00       5.93
H      -0.92      -3.13       6.43
H       3.76      -1.43      14.33
H       1.42       4.56       8.90
H       4.34      -3.44       9.16
H       2.00       1.09      13.22
H      -0.34       2.34       7.27
H      -1.99      11.99       5.67
H       0.35       7.47       1.61
H       2.69       6.22       7.56
C       2.61       9.90       6.59
C       4.95       9.31       2.95
C       0.27       6.46       5.29
C      -0.26      -1.35       8.24
C      -2.60      -0.75      11.88
C       2.08       2.10       9.54
C       1.74      10.99       7.06
C       4.07       9.17       1.78
C      -0.60       5.51       5.99
C       0.61      -2.43       7.77
C      -1.72      -0.62      13.05
C       2.95       3.05       8.83
C       0.43      11.20       6.56
C       2.76       8.64       1.85
C      -1.91       5.84       6.42
C       1.92      -2.64       8.27
C      -0.41      -0.08      12.98
C       4.26       2.72       8.41
C       2.27      11.90       8.01
C       4.61       9.55       0.51
C      -0.07       4.23       6.30
C       0.08      -3.34       6.82
C      -2.26      -0.99      14.32
C       2.42       4.33       8.53
C       3.91      -4.12       8.43
C       1.58       0.79      14.18
C      -0.76       3.32       7.05
C      -1.56      12.67       6.40
C       0.77       7.77       0.65
C       3.11       5.24       7.78
C       2.64      -3.83       7.88
C       0.30       0.17      14.20
C      -2.04       3.65       7.57
C      -0.29      12.39       6.95
C       2.05       8.38       0.63
C       4.39       4.91       7.26
O       3.80       9.81       7.04
O      -0.87       9.74       2.81
O       1.47       6.12       4.98
O      -1.45      -1.25       7.79
O       3.22      -1.19      12.02
O       0.88       2.44       9.85
O       2.16       9.08       5.69
O       4.50       8.94       4.12
O      -0.17       7.65       5.02
O       0.19      -0.52       9.14
O      -2.15      -0.39      10.71
O       2.52       0.91       9.81
O      -0.19      10.35       5.72
O       2.15       8.34       3.00
O       4.49       6.98       6.10
O       2.54      -1.80       9.11
O       0.20       0.22      11.83
O      -2.14       1.57       8.73
