174

Zr      22.29      22.29       6.81
Zr       6.58       6.58       6.81
Zr       4.81       4.81       4.30
Zr      24.06      24.06       9.31
Zr       6.58      22.29       6.81
Zr      22.29       6.58       6.81
H       4.81      21.28       4.84
H       7.59      24.06       8.77
H       4.81       7.59       4.84
H      21.28      24.06       8.77
H       6.97      10.95       6.83
H      21.91      17.92       6.83
H       6.94      17.87       6.83
H       6.90      15.46       6.79
H      21.93      11.00       6.83
H      21.98      13.42       6.79
H      10.95       6.97       6.78
H      17.92      21.91       6.78
H      17.87       6.94       6.78
H      15.46       6.90       6.82
H      11.00      21.93       6.78
H      13.42      21.98       6.82
H      19.90       8.94       3.99
H       8.94      19.90       9.63
H      26.08      22.01      12.69
H      17.71      11.18       0.75
H       2.76       6.83       0.92
H      11.18      17.71      12.86
H       8.98      19.93       3.99
H      19.93       8.98       9.63
H      22.05      26.11      12.69
H      11.17      17.69       0.75
H       6.86       2.80       0.92
H      17.69      11.17      12.86
H      26.04      26.08      12.67
H       2.80       2.84       0.94
H      19.89      19.92       3.93
H      18.73      18.71       2.19
H       8.96       8.99       9.68
H      10.17      10.15      11.42
H       6.83       6.79       0.94
H      22.09      22.05      12.67
H      19.92      19.89       9.68
H      18.71      18.73      11.42
H       8.99       8.96       3.93
H      10.15      10.17       2.19
C      24.05      19.57       6.86
C       9.31       4.83       6.75
C      24.08       9.31       6.86
C      19.57       4.80       6.75
C      21.78       2.61       3.62
C      21.86      21.78       9.99
C      26.26       7.09       9.99
C       7.09       7.01       3.62
C       7.11       2.60       3.64
C      21.77       7.03       3.64
C      21.85       7.11       9.97
C      26.28      21.77       9.97
C      24.08      10.80       6.84
C      24.05      18.08       6.84
C       6.03      11.50       6.83
C       6.06      12.90       6.81
C      22.85      17.37       6.83
C      22.81      15.98       6.81
C       5.99      17.35       6.83
C       5.94      15.97       6.80
C      22.89      11.52       6.83
C      22.93      12.91       6.80
C       4.86      13.69       6.80
C      24.01      15.19       6.80
C      10.80       4.83       6.77
C      18.08       4.80       6.77
C      11.50       6.03       6.78
C      12.90       6.06       6.80
C      17.37      22.85       6.78
C      15.98      22.81       6.80
C      17.35       5.99       6.79
C      15.97       5.94       6.81
C      11.52      22.89       6.79
C      12.91      22.93       6.81
C      13.69       4.86       6.81
C      15.19      24.01       6.81
C      21.04       7.79       2.59
C      27.04      21.04      11.03
C      20.09       8.75       2.93
C      19.39       9.48       1.97
C       8.75      20.09      10.68
C       9.48      19.39      11.64
C      26.82      21.28      12.38
C      27.55      20.58      13.33
C       2.03       7.57       1.23
C       1.33       8.30       0.28
C      19.60       9.28       0.56
C       9.28      19.60      13.05
C       7.84       1.84       2.59
C      21.09       7.84      11.03
C       8.78      20.13       2.93
C       9.48      19.40       1.97
C      20.13       8.78      10.68
C      19.40       9.48      11.64
C      21.31      26.85      12.38
C      20.58      27.54      13.33
C       7.60       2.06       1.23
C       8.29       1.33       0.28
C       9.27      19.59       0.56
C      19.59       9.27      13.05
C      27.02       7.82      11.05
C      21.05       1.86       2.56
C      26.79      26.82      12.40
C      27.48      27.48      13.41
C       2.06       2.09       1.22
C       1.39       1.39       0.20
C      20.11      20.13       2.89
C      19.45      19.45       1.88
C       8.74       8.77      10.72
C       9.43       9.43      11.73
C      28.48      28.47      13.12
C       0.40       0.40       0.49
C       7.82       7.77       2.56
C      21.11      21.05      11.05
C       7.57       7.54       1.22
C       8.23       8.23       0.20
C      21.34      21.31      12.40
C      20.64      20.64      13.41
C      20.13      20.11      10.72
C      19.45      19.45      11.73
C       8.77       8.74       2.89
C       9.43       9.43       1.88
C       9.22       9.23       0.49
C      19.65      19.65      13.12
Cl       7.72      13.47       6.79
Cl      21.16      15.40       6.79
Cl      13.47       7.72       6.82
Cl      15.40      21.16       6.82
Cl      18.29      10.61       2.74
Cl      10.61      18.29      10.87
Cl      10.59      18.27       2.74
Cl      18.27      10.59      10.87
Cl      17.32      17.30       1.37
Cl      11.57      11.55      12.24
Cl      17.30      17.32      12.24
Cl      11.55      11.57       1.37
O      22.91      20.15       6.85
O       8.72       5.96       6.76
O       5.96       8.72       6.85
O      20.15      22.91       6.76
O       3.40       3.47       3.23
O      22.72      22.65      10.38
O      25.41      25.47      10.38
O       6.22       6.16       3.23
O       7.38      21.57       4.86
O      21.50       7.31       4.86
O      21.57       7.38       8.75
O       7.31      21.50       8.75
O       3.38       6.17       3.24
O      22.71      25.50      10.37
O      25.42      22.63      10.37
O       6.25       3.46       3.24
O      21.50      21.58       4.83
O       7.37       7.29       4.83
O       7.29       7.37       8.78
O      21.58      21.50       8.78
O      20.15       5.94       6.75
O       5.94      20.15       6.86
O       8.73      22.94       6.75
O      22.94       8.73       6.86
O      22.07      24.06       8.21
O       4.81       6.80       5.40
O       6.80      24.06       8.21
O       4.81      22.07       5.40
O       6.28       4.81       5.77
O      24.06      22.59       7.85
O      24.06       6.28       7.85
O      22.59       4.81       5.77
