85

Al       0.05      -5.88      10.22
H       1.92      19.72       6.57
H       1.86      19.85       4.13
H       2.58       7.66      20.11
H       0.30      13.22      14.92
H       0.13      11.53      15.72
H       0.13       9.48      17.00
H       1.25       8.04      18.27
H       2.03      13.51      10.29
H       2.00      11.33      11.39
H       2.62       7.65      13.99
H       1.04       0.37      11.69
H       0.65       1.84      12.77
H       0.41       3.96      13.91
H       1.45       5.86      14.57
H       2.94      -3.68      13.81
H       2.73      -1.65      15.15
H       2.88       2.47      17.12
H       0.42      15.75       4.02
H       0.10      15.98       2.14
H       0.10       4.13      20.16
H       1.43       3.75      18.31
H       0.73      -2.64      10.02
H      -0.17      15.83       7.45
H       0.74      -7.39      13.13
H      -0.12      -0.28      15.46
H      -0.81      19.40       3.01
H      -0.73      10.51      12.36
C       1.07      17.72       8.14
C       2.04      -4.11      11.31
C       1.07      15.84      11.20
C       1.57      18.87       5.99
C       1.60      18.91       4.61
C       2.07      18.70       1.59
C       2.02      18.68       0.20
C       0.50      14.42      13.19
C       0.67      13.22      13.89
C       0.71      10.70      15.33
C       0.70       9.52      16.07
C       1.06      17.76       6.68
C       1.24      17.77       3.83
C       1.35      17.74       2.36
C       1.31       5.91      19.93
C       1.32       5.90      18.46
C       1.29       7.10      17.73
C       1.64      13.42      11.30
C       1.67      12.20      11.96
C       2.08       9.67      13.65
C       2.03       8.48      14.37
C       1.38      -1.70      11.52
C       1.45      -0.49      12.21
C       1.17       1.97      13.71
C       1.03       3.19      14.36
C       1.06      14.55      11.89
C       1.26      12.09      13.31
C       1.37      10.83      14.09
C       1.35       8.37      15.58
C       1.34       7.10      16.33
C       1.41       5.87      15.66
C       2.51      -2.78      13.36
C       2.44      -1.61      14.10
C       2.54       1.14      15.50
C       2.34       2.34      16.18
C       0.55      16.67       5.92
C       0.73      16.66       4.53
C       0.69      16.73       1.62
C       0.70      16.68       0.23
C       1.98      -2.86      12.07
C       1.96      -0.40      13.52
C       1.91       0.89      14.25
C       1.60       3.38      15.63
C       1.45       4.66      16.36
C       1.40       4.69      17.76
O       0.14      16.70      11.50
O       0.14      17.03       8.73
O       1.13      -4.30      10.40
O       1.99      16.08      10.34
O       2.98      -4.95      11.54
O       1.99      18.35       8.77
O       0.78      -1.69      10.30
O      -0.04      15.60       6.49
O      -0.15      15.43      13.81
O       3.38       0.26      16.13
O       2.86      19.68       2.12
O       2.88       9.63      12.54
