70

Al      -2.85       4.74       8.67
Al       0.46       4.75       8.66
H      -1.17       6.34       9.40
H       2.08       3.13       8.01
H       3.23       4.63       4.82
H       2.98       4.81       2.34
H       0.85       5.29       4.47
H       0.06       4.15      12.85
H      -2.32       4.82      12.53
H      -2.09       4.64      15.01
H       0.33       7.70       6.82
H       3.65       2.07       6.95
H       0.55       5.55       0.91
H       0.34       3.89      16.41
H       0.32       0.38      11.54
H       0.40       1.85      10.56
H       1.55       0.54      10.29
H      -1.56       8.55      10.04
H      -2.87       7.41      10.44
H      -2.63       8.88      11.40
H      -2.52       9.09       5.51
H      -1.37       7.76       5.23
H      -1.39       9.18       4.16
H       1.84       1.01       4.22
H       1.90       2.30       5.45
H       0.66       1.03       5.54
C       2.18       7.15       8.53
C       2.06       4.64      11.08
C      -1.26       2.35       8.80
C      -1.15       4.83       6.26
C      -1.26       4.93       4.78
C       4.09       4.80       4.18
C       3.96       4.89       2.81
C      -1.52       5.12       2.00
C      -0.25       5.27       2.61
C      -0.12       5.17       4.00
C      -1.58       5.21       0.59
C       2.47       4.24      16.74
C       2.42       4.33      15.34
C       1.15       4.17      14.72
C       1.03       4.27      13.33
C       2.17       4.51      12.56
C      -3.19       4.65      13.16
C      -3.06       4.56      14.54
C       2.21       8.64       8.59
C       1.31       9.39       7.77
C      -3.52       9.26       9.46
C       0.38       8.79       6.88
C      -0.49       9.53       6.10
C      -1.28       0.86       8.73
C      -0.43       0.11       9.54
C       4.41       0.24       7.83
C       3.56       0.99       6.97
C       2.64       0.39       6.14
C       0.50       0.76      10.53
C      -2.61       8.47      10.37
C      -1.49       8.85       5.21
C       1.72       1.23       5.30
O       3.27       6.55       8.25
O       0.93       4.44      10.53
O      -0.17       2.94       8.54
O      -2.21       4.51       6.88
O      -2.35       2.94       9.09
O      -0.01       5.05       6.80
O       1.08       6.56       8.78
O       3.13       4.97      10.46
O      -1.19       5.38       9.23
O       2.11       4.10       8.11
O       0.85       5.51       1.85
O       0.04       3.93      15.48
