238

Zn       9.69       9.69      33.38
Zn       9.69      11.95       1.13
Zn      11.95      11.95      33.38
Zn      11.95       9.69       1.13
Zn      11.95      11.95      18.39
Zn       9.69      11.95      16.12
Zn       9.69       9.69      18.39
Zn      11.95       9.69      16.12
H      12.33      16.08      32.99
H      12.33      18.58      32.98
H       9.31      16.08       1.53
H       9.31      18.58       1.53
H      10.82      20.40       2.15
H      10.82      20.40      32.36
H       9.31       5.56      32.99
H       9.31       3.07      32.98
H      12.33       5.56       1.53
H      12.33       3.07       1.53
H      10.82       1.24      32.36
H      10.82       1.24       2.15
H       9.32       9.32      29.30
H      12.32      12.32      29.30
H      12.32      12.32      22.47
H       9.32       9.32      22.47
H       9.32      12.32       5.21
H      12.32       9.32       5.21
H      12.32       9.32      12.04
H       9.32      12.32      12.04
H      16.08      12.35      33.01
H      18.58      12.35      33.00
H      16.08       9.29       1.51
H      18.58       9.29       1.51
H      20.40       8.67       0.00
H      20.40      12.97      34.51
H       5.56      12.35       1.51
H       3.07      12.35       1.51
H       5.56       9.29      33.01
H       3.07       9.29      33.00
H       1.24      12.97       0.00
H       1.24       8.67      34.51
H       5.56       9.31      18.79
H       3.07       9.31      18.79
H       5.56      12.33      15.73
H       3.07      12.33      15.72
H       1.24      10.82      15.10
H       1.24      10.82      19.41
H      16.08      12.33      18.79
H      18.58      12.33      18.79
H      16.08       9.31      15.73
H      18.58       9.31      15.72
H      20.40      10.82      19.41
H      20.40      10.82      15.10
H       9.29       5.56      18.77
H       9.29       3.07      18.77
H      12.35       5.56      15.75
H      12.35       3.07      15.74
H      12.97       1.24      17.26
H       8.67       1.24      17.26
H       9.29      16.08      15.75
H       9.29      18.58      15.74
H      12.35      16.08      18.77
H      12.35      18.58      18.77
H       8.67      20.40      17.26
H      12.97      20.40      17.26
H       7.07       8.32      24.74
H       8.19       8.19      23.38
H       8.32       7.07      24.75
H       8.32       7.07      27.03
H       8.19       8.19      28.39
H       7.07       8.32      27.02
H      14.57      13.32      24.74
H      13.45      13.45      23.38
H      13.32      14.57      24.75
H      13.32      14.57      27.03
H      13.45      13.45      28.39
H      14.57      13.32      27.02
H       7.07      13.32       9.77
H       8.19      13.45      11.13
H       8.32      14.57       9.77
H       8.32      14.57       7.49
H       8.19      13.45       6.13
H       7.07      13.32       7.49
H      14.57       8.32       9.77
H      13.45       8.19      11.13
H      13.32       7.07       9.77
H      13.32       7.07       7.49
H      13.45       8.19       6.13
H      14.57       8.32       7.49
C       7.20      10.82      34.52
C      10.82      14.44       0.00
C      10.82      10.82      30.89
C      14.44      10.82       0.00
C      10.82       7.20      34.52
C      10.82      10.82       3.62
C      10.82      14.44      17.26
C       7.20      10.82      17.26
C      10.82      10.82      20.88
C      10.82       7.20      17.26
C      14.44      10.82      17.26
C      10.82      10.82      13.64
C      10.82      15.93       0.00
C      11.67      16.64      33.65
C      11.66      18.03      33.64
C       9.98      16.64       0.87
C       9.98      18.03       0.87
C      10.82      18.75      34.52
C      10.82      20.22      34.52
C      10.81      20.95       1.21
C      10.83      20.95      33.31
C      10.82       5.71      34.52
C       9.98       5.00      33.65
C       9.98       3.61      33.64
C      11.67       5.00       0.87
C      11.66       3.61       0.87
C      10.82       2.89      34.52
C      10.82       1.42      34.52
C      10.81       0.70      33.31
C      10.83       0.70       1.21
C       9.96       9.96      28.71
C       9.94       9.94      27.31
C       9.06       9.06      26.58
C      11.68      11.68      28.71
C      11.70      11.70      27.31
C      12.59      12.59      26.58
C      11.68      11.68      23.06
C      11.70      11.70      24.46
C      12.58      12.59      25.20
C       9.96       9.96      23.06
C       9.94       9.94      24.46
C       9.06       9.06      25.20
C      10.82      10.82      29.40
C      10.82      10.82      26.60
C      10.82      10.82      22.37
C      10.82      10.82      25.18
C       9.96      11.68       5.80
C       9.94      11.70       7.21
C       9.06      12.58       7.94
C      11.68       9.96       5.80
C      11.70       9.94       7.21
C      12.59       9.06       7.94
C      11.68       9.96      11.45
C      11.70       9.94      10.05
C      12.58       9.06       9.32
C       9.96      11.68      11.45
C       9.94      11.70      10.05
C       9.06      12.59       9.32
C      10.82      10.82       5.11
C      10.82      10.82       7.92
C      10.82      10.82      12.14
C      10.82      10.82       9.34
C      15.93      10.82       0.00
C      16.64      11.69      33.67
C      18.03      11.69      33.68
C      16.64       9.95       0.85
C      18.03       9.95       0.84
C      18.75      10.82      34.52
C      20.22      10.82      34.52
C      20.95       9.61       0.01
C      20.95      12.03      34.51
C       5.71      10.82       0.00
C       5.00      11.69       0.85
C       3.61      11.69       0.84
C       5.00       9.95      33.67
C       3.61       9.95      33.68
C       2.89      10.82       0.00
C       1.42      10.82       0.00
C       0.70      12.03       0.01
C       0.70       9.61      34.51
C       5.71      10.82      17.26
C       5.00       9.98      18.13
C       3.61       9.98      18.13
C       5.00      11.67      16.39
C       3.61      11.66      16.39
C       2.89      10.82      17.26
C       1.42      10.82      17.26
C       0.70      10.83      16.05
C       0.70      10.81      18.46
C      15.93      10.82      17.26
C      16.64      11.67      18.13
C      18.03      11.66      18.13
C      16.64       9.98      16.39
C      18.03       9.98      16.39
C      18.75      10.82      17.26
C      20.22      10.82      17.26
C      20.95      10.83      18.46
C      20.95      10.81      16.05
C      10.82       5.71      17.26
C       9.95       5.00      18.10
C       9.95       3.61      18.10
C      11.69       5.00      16.41
C      11.69       3.61      16.42
C      10.82       2.89      17.26
C      10.82       1.42      17.26
C      12.03       0.70      17.25
C       9.61       0.70      17.27
C      10.82      15.93      17.26
C       9.95      16.64      16.41
C       9.95      18.03      16.42
C      11.69      16.64      18.10
C      11.69      18.03      18.10
C      10.82      18.75      17.26
C      10.82      20.22      17.26
C       9.61      20.95      17.25
C      12.03      20.95      17.27
C       8.12       8.12      24.47
C       8.12       8.12      27.30
C      13.52      13.52      24.47
C      13.52      13.52      27.30
C       8.12      13.52      10.04
C       8.12      13.52       7.21
C      13.52       8.12      10.04
C      13.52       8.12       7.21
O      10.82      10.82       0.00
O       7.78      10.01      33.71
O      10.01      13.86       0.80
O      11.63      11.63      31.48
O       7.78      11.63       0.80
O      10.02      10.02      31.48
O      11.63      13.86      33.71
O      13.86      11.63      33.71
O      11.63       7.78       0.80
O      13.86      10.01       0.80
O      10.01       7.78      33.71
O      10.02      11.63       3.04
O      11.63      10.02       3.04
O      10.82      10.82      17.26
O      11.63      13.86      18.06
O       7.78      11.63      16.45
O      10.02      10.02      20.30
O      10.01      13.86      16.46
O      11.63      11.63      20.30
O       7.78      10.01      18.06
O      10.01       7.78      18.06
O      13.86      10.01      16.45
O      11.63       7.78      16.46
O      13.86      11.63      18.06
O      10.02      11.63      14.22
O      11.63      10.02      14.22
