306

Zn      10.66       4.46       1.96
Zn      -3.69      10.00       4.86
Zn       0.86      -3.61      11.12
Zn      -4.39       4.24      12.42
Zn       9.96      -1.30       9.51
Zn       5.41      12.31       3.26
Zn       3.80      -2.93      12.72
Zn      10.77       7.61       3.30
Zn      -3.98      10.03       8.27
Zn       2.47      11.63       1.66
Zn      -4.50       1.10      11.08
Zn      10.25      -1.32       6.11
H       4.87      -5.92      11.91
H      11.07       8.83       0.28
H      -7.16       9.28       7.95
H       1.40      14.62       2.47
H      -4.80      -0.13      14.10
H      13.43      -0.58       6.42
H      -1.18       6.11      12.74
H       8.40       1.56      11.32
H       6.17      10.91       6.63
H       7.45       2.60       1.63
H      -2.13       7.15       3.06
H       0.10      -2.21       7.75
H      10.49       0.15       1.58
H      -2.07      10.37       0.87
H      -3.18      -3.24       9.59
H      -4.22       8.55      12.80
H       8.34      -1.67      13.51
H       9.45      11.94       4.79
H      -2.00       6.29      10.48
H       6.67       0.12      10.44
H       6.61       9.24       4.94
H       8.27       2.41       3.90
H      -0.40       8.59       3.94
H      -0.34      -0.54       9.44
H      -0.25       6.05      10.71
H       6.42       1.88      10.33
H       5.82       8.71       6.46
H       6.52       2.65       3.67
H      -0.15       6.82       4.05
H       0.45      -0.01       7.92
H      -1.51       7.48       8.28
H       4.15      -0.20      10.47
H       7.57       6.90       4.67
H       7.78       1.22       6.09
H       2.12       8.91       3.91
H      -1.30       1.80       9.70
H      -0.92       5.80       8.29
H       4.70       0.60       8.98
H       5.80       6.90       4.70
H       7.19       2.90       6.09
H       1.57       8.11       5.39
H       0.47       1.81       9.68
H       0.23       7.15       8.52
H       3.94       1.56      10.29
H       6.71       6.40       6.15
H       6.04       1.55       5.86
H       2.33       7.15       4.09
H      -0.44       2.31       8.23
H       7.35       8.82       2.21
H      -4.35       6.30       8.84
H       6.04      -2.57       9.68
H      -1.08      -0.12      12.17
H      10.62       2.41       5.53
H       0.23      11.27       4.70
H       3.34       7.65       1.20
H      -3.41       2.38       7.34
H       6.20      -1.53       5.51
H       2.93       1.05      13.17
H       9.68       6.32       7.04
H       0.07      10.23       8.86
H       6.58       4.80       0.88
H      -3.46       5.78       4.66
H       2.47      -2.82       7.28
H      -0.31       3.90      13.50
H       9.73       2.93       9.72
H       3.80      11.52       7.10
H      -2.57      -1.05      13.83
H      12.90       1.60       5.48
H      -0.18      13.54       3.96
H       8.84       9.75       0.55
H      -6.63       7.11       8.90
H       6.45      -4.84      10.42
H       2.06       5.54       0.76
H      -2.45       1.36       5.26
H       4.60      -1.05       3.64
H       4.21       3.17      13.62
H       8.72       7.35       9.12
H       1.67       9.75      10.74
H      -4.02      -2.82      12.86
H      13.32       0.21       3.47
H      -1.40      13.57       1.79
H      10.29      11.52       1.52
H      -7.05       8.50      10.91
H       7.67      -4.87      12.59
H      -2.32      -3.11      12.45
H      12.57       1.76       3.01
H      -2.22      12.51       2.95
H       8.59      11.82       1.92
H      -6.30       6.95      11.36
H       8.49      -3.81      11.42
H      -3.11      -4.08      13.73
H      14.32       1.50       2.75
H      -2.89      14.13       2.61
H       9.38      12.79       0.65
H      -8.05       7.20      11.63
H       9.16      -5.43      11.77
H       5.97      -1.80      13.73
H      10.44       9.78       4.77
H      -3.60       9.81      10.88
H       0.30      10.51       0.65
H      -4.17      -1.08       9.61
H       9.87      -1.10       3.50
H       5.37      -0.68      12.76
H       9.32       8.77       5.32
H      -2.34       9.04      10.24
H       0.90       9.38       1.62
H      -3.05      -0.07       9.06
H       8.61      -0.34       4.14
C      10.55       2.41       0.09
C      -4.33       9.68       2.18
C      -1.05      -4.91       9.59
C      -4.28       6.29      14.29
C      10.60      -0.98      12.20
C       7.32      13.62       4.79
C       4.98      -6.51      13.98
C      13.04       9.61       0.71
C      -7.76      11.15       8.84
C       1.29      15.22       0.40
C      -6.77      -0.90      13.67
C      14.02      -2.45       5.53
C      -0.58       9.47      12.61
C       6.62       1.60      14.24
C       9.17      10.04       8.02
C       6.85      -0.77       1.76
C      -0.35       7.11       0.13
C      -2.90      -1.34       6.36
C      -0.79       8.17      12.15
C       6.87       1.46      12.87
C       8.00       9.92       7.26
C       7.06       0.53       2.22
C      -0.60       7.25       1.51
C      -1.73      -1.21       7.12
C      -0.93       7.12      13.06
C       8.14       1.74      12.36
C       7.04      10.93       7.27
C       7.20       1.59       1.32
C      -1.87       6.96       2.02
C      -0.77      -2.23       7.11
C       4.66      14.89       0.05
C      -7.98       2.25      13.22
C      12.65      -4.19       8.12
C       1.61      -6.19      14.32
C      14.25       6.45       1.16
C      -6.38      12.89       6.25
C      10.36      -0.05       0.52
C      -2.82       9.97       0.20
C      -3.33      -4.09       8.93
C      -4.09       8.75      13.86
C       9.09      -1.27      14.18
C       9.60      12.79       5.45
C       4.49      13.77       1.03
C      -6.62       2.52      12.68
C      11.64      -3.09       8.11
C       1.78      -5.07      13.35
C      12.89       6.18       1.70
C      -5.37      11.79       6.26
C      -1.01       6.69      10.24
C       5.98       0.94      10.67
C       6.67       8.53       5.78
C       7.28       2.01       4.14
C       0.29       7.77       3.70
C      -0.40       0.17       8.60
C      -0.79       6.79       8.74
C       4.61       0.71      10.07
C       6.69       7.09       5.30
C       7.06       1.91       5.63
C       1.66       7.99       4.30
C      -0.42       1.61       9.08
C       8.55       6.44       1.72
C      -4.09       7.64       6.51
C       3.40      -3.18       9.79
C      -2.28       2.26      12.66
C      10.36       1.06       7.87
C       2.87      11.88       4.59
C       7.10       6.77       1.59
C      -3.89       6.19       6.73
C       4.17      -2.71       8.60
C      -0.83       1.94      12.79
C      10.16       2.52       7.64
C       2.10      11.41       5.77
C       6.65       8.06       1.88
C      -4.07       5.65       8.01
C       5.54      -2.44       8.72
C      -0.38       0.65      12.49
C      10.34       3.05       6.36
C       0.73      11.14       5.65
C       5.29       8.35       1.75
C      -3.88       4.29       8.21
C       6.24      -2.01       7.60
C       0.98       0.35      12.63
C      10.15       4.42       6.17
C       0.02      10.71       6.77
C       4.39       7.38       1.31
C      -3.54       3.45       7.14
C       5.61      -1.86       6.36
C       1.88       1.33      13.07
C       9.81       5.26       7.24
C       0.66      10.56       8.01
C       4.85       6.10       0.97
C      -3.40       3.98       5.85
C       4.25      -2.17       6.24
C       1.42       2.61      13.40
C       9.67       4.72       8.52
C       2.02      10.87       8.14
C       6.21       5.79       1.15
C      -3.54       5.36       5.66
C       3.52      -2.56       7.37
C       0.06       2.92      13.23
C       9.81       3.34       8.72
C       2.75      11.27       7.00
C       4.81       9.74       2.03
C      -4.10       3.70       9.57
C       7.71      -1.75       7.71
C       1.46      -1.03      12.35
C      10.37       5.00       4.81
C      -1.44      10.45       6.66
C      -2.64      -2.04      14.30
C      13.75       1.81       4.82
C      -1.10      14.13       3.84
C       8.91      10.75       0.08
C      -7.48       6.89       9.56
C       7.37      -5.43      10.54
C      -3.04      -3.08      13.28
C      13.48       1.29       3.42
C      -1.96      13.55       2.73
C       9.31      11.79       1.10
C      -7.21       7.41      10.95
C       8.23      -4.85      11.64
O      10.65       2.59       1.36
O      -3.37      10.10       2.92
O      -0.92      -3.86      10.30
O      -4.38       6.12      13.02
O       9.64      -1.40      11.46
O       7.19      12.56       4.07
O       5.17      -4.16      13.62
O      11.64       9.34       2.63
O      -5.59      10.41       9.49
O       1.10      12.87       0.75
O      -5.37      -0.63      11.75
O      11.86      -1.71       4.89
O       4.96      13.94       2.22
O      -5.84       3.28      13.38
O      11.65      -2.26       9.11
O       1.31      -5.24      12.16
O      12.11       5.42       1.00
O      -5.38      10.97       5.27
O       3.90      12.73       0.64
O      -6.29       2.01      11.57
O      10.84      -3.02       7.14
O       2.37      -4.02      13.74
O      12.56       6.70       2.81
O      -4.57      11.72       7.24
O       8.86       5.20       1.66
O      -3.70       8.11       5.38
O       2.13      -3.19       9.68
O      -2.59       3.50      12.72
O       9.97       0.60       9.00
O       4.14      11.89       4.70
O       9.37       7.40       1.88
O      -4.64       8.33       7.43
O       4.05      -3.54      10.83
O      -3.10       1.30      12.49
O      10.91       0.37       6.94
O       2.22      12.24       3.55
O       5.69      10.59       2.37
O      -4.47       4.51      10.48
O       8.25      -1.96       8.85
O       0.58      -1.89      12.01
O      10.74       4.20       3.89
O      -1.98      10.67       5.52
O       3.56       9.96       1.90
O      -3.91       2.45       9.70
O       8.32      -1.34       6.67
O       2.71      -1.25      12.47
O      10.18       6.26       4.67
O      -2.05      10.04       7.71
O      -0.88       8.03      10.79
O       5.81       1.01      12.12
O       7.90       8.77       6.51
O       7.15       0.67       3.59
O       0.46       7.70       2.26
O      -1.63      -0.06       7.87
O       4.08       5.11       0.44
O      -3.17       3.24       4.73
O       3.55      -2.15       5.07
O       2.19       3.59      13.93
O       9.44       5.46       9.64
O       2.72      10.86       9.31
O       5.44      -1.64      12.92
O       9.86       9.02       4.53
O      -3.28       9.30      10.09
O       0.83      10.35       1.46
O      -3.59      -0.32       9.85
O       9.55      -0.59       4.28
