80

Al       3.95       6.15      10.66
Al       3.95      18.46      17.76
H       1.30      26.35      15.58
H       1.30      22.88      12.84
H       2.81      22.50      17.54
H       2.83      24.73      16.43
H       2.81      26.73      10.87
H       2.83      24.50      11.99
H       1.30      12.62      12.02
H       1.30      11.99      16.40
H       2.81      16.25      14.37
H       2.83      14.17      13.00
H       2.81       8.36      14.05
H       2.83      10.44      15.41
H       1.30       4.10       4.37
H       1.30       8.21       2.73
H       2.81       4.32       0.05
H       2.83       4.18       2.54
H       2.81       7.98       7.05
H       2.83       8.13       4.56
C       1.97       6.06       8.61
C       1.97      29.04      11.77
C       1.97       7.98      11.60
C       1.97      20.19      16.65
C       1.97      16.64      16.82
C       1.97      18.56      19.81
C       1.99      27.77      12.55
C       1.99      21.45      15.86
C       1.57      27.65      13.89
C       1.63      26.42      14.54
C       1.57      21.58      14.53
C       1.63      22.81      13.88
C       2.46      22.61      16.52
C       2.47      23.85      15.89
C       2.46      26.62      11.90
C       2.47      25.38      12.52
C       2.05      25.26      13.86
C       2.05      23.96      14.55
C       1.99       9.29      12.30
C       1.99      15.32      16.12
C       1.57      10.51      11.74
C       1.63      11.69      12.48
C       1.57      14.10      16.68
C       1.63      12.92      15.94
C       2.46      15.31      14.79
C       2.46      14.15      14.03
C       2.46       9.31      13.63
C       2.46      10.47      14.39
C       2.05      11.68      13.82
C       2.05      12.93      14.60
C       1.99       6.01       7.12
C       1.99      18.61      21.30
C       1.57       4.91       6.34
C       1.63       4.97       4.95
C       1.57       7.39       0.76
C       1.63       7.34       2.16
C       2.46       5.16       0.66
C       2.47       5.08       2.05
C       2.46       7.15       6.44
C       2.47       7.23       5.06
C       2.05       6.13       4.29
C       2.05       6.18       2.82
Br       0.97      29.12      14.93
Br       0.97      20.10      13.49
Br       0.97      10.68       9.95
Br       0.97      13.94      18.47
Br       0.97      27.89       7.10
Br       0.97       9.03       0.01
O       2.89       7.15      11.90
O       2.89       6.73       9.17
O       2.90      29.19      10.90
O       1.01       7.75      10.79
O       1.02      29.86      11.97
O       1.01       5.47       9.21
O       2.90      17.89      19.25
O       2.90      20.04      17.52
O       2.90      17.46      16.52
O       1.02      19.14      19.20
O       1.02      16.87      17.63
O       1.02      19.37      16.45
