174

Zr      -6.56      12.82       6.38
Zr       6.56      -1.75       9.27
Zr       4.79      -0.73       6.39
Zr      -4.79      11.80       9.27
Zr      -3.03      12.82       6.38
Zr       3.03      -1.75       9.27
H      -4.79      13.84       4.42
H      -2.01      12.23       8.96
H       4.79       0.44       8.96
H      -7.58      12.23       8.96
H     -12.20       2.23      14.88
H      12.20       8.86       0.77
H      -2.72      10.28       2.84
H      -2.64       8.89       0.82
H       2.72       0.74      12.85
H       2.64       2.19      14.83
H      -5.74      -1.51       9.61
H       5.74      12.57       6.05
H      -1.33      -1.54       9.51
H      -3.79      -1.53       9.59
H       1.33      12.66       6.11
H       3.79      12.59       6.07
H      -0.61       4.09       9.61
H       0.62       6.99       6.05
H      -2.79       7.92       9.51
H      -1.58       5.79       9.59
H       2.75       3.13       6.11
H       1.58       5.29       6.07
H       0.61      14.44       0.77
H      -0.62      -3.38      14.88
H      -6.80      10.28      12.85
H      -8.01       9.49      14.83
H       6.84       0.81       2.84
H       8.00       1.57       0.82
H      -1.56       9.45      14.88
H       1.57       1.61       0.77
H      -8.92      13.82       2.84
H       9.02      14.45       0.82
H       8.88      -2.72      12.85
H      -9.01      -3.38      14.83
H       8.02       5.35       6.05
H      -8.03       5.73       9.61
H      -8.88       9.12       6.11
H       9.01       7.03       6.07
H       8.92       1.92       9.51
H      -9.02       4.05       9.59
C      -4.82      11.20       4.19
C       9.29      -2.71       7.82
C       4.82      -0.22      11.53
C       0.30      -2.74       7.77
C       2.52      -1.42       4.19
C      -6.99       9.92       7.82
C       6.99      -4.07      11.53
C       7.06       1.11       7.77
C       7.09      -1.47       4.19
C       2.49       1.09       7.82
C       2.57      -4.02      11.53
C      -2.57       9.93       7.77
C       4.85       0.66      12.74
C      -4.85      10.35       2.96
C       6.03       1.11      13.35
C       6.01       1.93      14.48
C      -6.03       9.92       2.33
C      -6.01       9.14       1.18
C      -3.64       9.95       2.37
C      -3.61       9.17       1.22
C       3.64       1.08      13.32
C       3.61       1.90      14.44
C       4.80       2.34      15.05
C      -4.80       8.73       0.60
C      10.78      -2.71       7.85
C     -10.78      13.84       7.76
C      11.55      -2.04       8.82
C      12.93      -2.06       8.82
C     -11.55      13.15       6.81
C     -12.93      13.14       6.83
C      -1.91      -2.08       8.76
C      -3.30      -2.08       8.80
C       1.91      13.19       6.87
C       3.30      13.16       6.86
C      13.64      -2.77       7.84
C     -13.64      13.83       7.83
C       1.75       2.39       7.85
C      -1.80       8.66       7.76
C       0.79       2.72       8.82
C       0.11       3.93       8.82
C      -0.82       8.34       6.81
C      -0.12       7.14       6.83
C      -2.04       7.69       8.76
C      -1.34       6.49       8.80
C       2.00       3.36       6.87
C       1.34       4.58       6.86
C       0.37       4.89       7.84
C      -0.37       6.18       7.83
C      -1.75      15.54       2.96
C       1.80      -4.43      12.74
C      -0.79      14.73       2.33
C      -0.11      15.14       1.18
C       0.82      -3.64      13.35
C       0.12      -4.06      14.48
C      -7.55      10.91      13.32
C      -8.24      10.48      14.44
C       7.59       0.18       2.37
C       8.25       0.60       1.22
C      -0.37      16.39       0.60
C       0.37      -5.32      15.05
C      -1.86      12.08      12.74
C       1.80      -0.98       2.96
C      -2.05      10.83      13.35
C      -1.33      10.44      14.48
C       2.02       0.26       2.33
C       1.33       0.64       1.18
C      -8.74      14.79       2.37
C      -9.43      15.15       1.22
C       8.71      -3.69      13.32
C       9.43      -4.08      14.44
C      -0.37      11.28      15.05
C       0.38      -0.21       0.60
C       7.79       2.42       7.76
C      -7.73       8.62       7.85
C       7.57       3.43       6.81
C       8.26       4.63       6.83
C      -7.54       7.63       8.82
C      -8.25       6.44       8.82
C      -8.71       8.36       6.87
C      -9.43       7.17       6.86
C       8.74       2.69       8.76
C       9.43       3.90       8.80
C       9.21       4.90       7.83
C      -9.22       6.18       7.84
O      -5.95      11.55       4.69
O       8.68      -2.05       8.73
O       5.95      -0.58      11.04
O      -8.68      13.23       6.85
O       3.38      -0.62       4.69
O      -6.12      10.12       8.73
O      -3.47      11.75      11.04
O       6.21       0.90       6.85
O      -2.23      13.99       4.69
O       2.23       0.24       8.73
O       2.32      -2.87      11.04
O      -2.32      10.78       6.85
O       3.36       0.94       6.89
O      -6.17      11.75      11.06
O      -3.41      10.09       8.72
O       6.23      -0.65       4.64
O      -7.35      14.02       4.64
O       7.35       0.30       8.72
O       7.29      -2.92      11.06
O      -7.29      10.74       6.89
O       0.86      -2.09       8.72
O      -3.68      11.54       4.64
O      -0.86      13.23       6.89
O       3.68      -0.53      11.06
O      -6.78      12.69       8.64
O       4.79      -0.47       8.64
O      -2.80      12.69       8.64
O      -4.79      13.84       5.39
O       6.26      -1.92       7.23
O      -4.79      12.15       7.23
O       4.79      -2.77       9.63
O       3.33      -1.92       7.23
F       7.25       0.78      12.88
F      -7.25      10.26       2.80
F      10.96      -1.33       9.82
F     -10.96      12.44       5.81
F       0.47       1.86       9.82
F      -0.50       9.20       5.81
F      -0.47      13.50       2.80
F       0.50      -2.41      12.88
F      -2.95       9.94      12.88
F       2.92       1.15       2.80
F       6.66       3.28       5.81
F      -6.64       7.78       9.82
