108

Zn       0.01      16.12       1.98
Zn      18.51       7.29      14.61
Zn       7.62      20.63      14.61
Zn      10.82      20.64      14.62
Zn       9.24      10.79       5.64
Zn      10.83      11.72       8.27
Zn       9.22       8.95       8.27
Zn       7.62      11.73       8.26
H      14.35       2.05       4.46
H      21.25       9.36      12.07
H       2.18      12.20       1.61
H      23.01       6.83      12.22
H      11.91       6.90      10.85
H      13.78       9.33      10.56
H      13.80       5.80      12.02
H      14.97       8.64      12.32
H       9.37       5.23       6.18
H       9.09       6.88       3.59
H       9.22       3.22       4.77
H      13.59      13.47       5.29
H       9.46       5.10       2.34
H       2.44       9.76       1.72
H       4.21       8.74       3.18
H       5.70      10.17       4.50
H       7.08      14.72       6.02
H       6.82      17.16       5.91
H       3.56      16.75       3.12
H      12.09      12.30       2.86
H       5.77       7.62      10.67
H      -4.86      13.45       1.45
H      -3.30      14.04       4.04
H       7.20      15.25      10.63
H      10.27      15.19      10.96
H       7.20      17.14      12.20
H      10.27      17.17      11.94
H       4.46      10.40      10.79
C      21.08       6.93      13.19
C       6.16      16.52       5.32
C       5.16      17.10       4.49
C      -2.55      14.63       2.08
C       4.33      16.30       3.75
C      12.89      12.85       3.36
C      12.84      12.92       4.71
C      -4.70      13.45       2.53
C      -3.55      14.01       2.98
C       8.17      15.60      10.99
C       9.27      14.91      10.62
C       4.93      10.62       3.88
C       8.17      16.77      11.86
C       9.27      17.45      12.26
C       4.55       9.34      11.02
C       9.34       2.94       2.11
C       5.61       8.68      10.51
C      22.13       8.74      11.85
C      22.17       7.50      12.37
C      12.82       7.48      11.03
C      12.90       8.70      10.46
C      13.86       6.88      11.84
C       4.81      12.05       3.85
C      14.87       7.56      12.42
C       9.29       5.38       5.10
C       9.20       6.65       4.65
C       9.28       4.19       4.27
C       9.21      18.62      13.15
C       9.37       4.18       2.92
C       9.22      13.74       9.73
C       9.22       7.82       5.54
C      11.78      12.28       5.52
C       6.65       9.33       9.68
C       3.79      12.63       3.01
C      11.80       9.29       9.66
C       6.68      12.27       5.51
C      15.93       6.91      13.21
C       2.57      14.65       2.12
C       2.95      11.76       2.25
C       3.10      10.40       2.31
C       4.10       9.82       3.13
C       5.63      12.89       4.63
C       5.47      14.29       4.61
C       4.45      14.87       3.77
C       3.63      14.04       2.99
C       6.31      15.15       5.38
O       0.02      16.12       0.02
O       7.61       8.57       9.32
O      11.99      10.51       9.30
O      21.25       5.71      13.55
O       6.50      12.36       6.76
O      10.78       8.57       9.41
O       7.67      11.72       4.91
O      10.84      11.67       4.91
O       6.51      10.57       9.39
O      10.36      13.24       9.42
O       9.28       7.64       6.80
O       9.30       1.82       2.72
O      -1.56      15.18       2.68
O       9.37       3.12       0.84
O       8.07      19.06      13.52
O      16.89       7.67      13.58
O       2.74      14.54       0.86
O      15.81       5.66      13.47
O       1.60      15.21       2.71
O      10.35      19.10      13.49
O      20.07       7.67      13.47
O      -2.73      14.57       0.82
O       9.23      10.80       7.61
O       8.08      13.32       9.33
O       9.18       8.96       4.94
O      11.92      12.41       6.78
