198

Zn      -1.35      -2.18       8.67
Zn       7.53      11.53       8.62
Zn       9.97      12.82       6.58
Zn      -3.99      -3.64      10.16
H       5.07      11.98       6.71
H       6.89       8.52       6.71
H      13.18      -2.06       8.45
H       7.85      13.85       4.57
H       0.88      -3.06      10.84
H     -10.04       9.85      10.61
H      -5.96      12.67       5.90
H      13.09      -4.36      12.48
H       5.46       9.75      10.59
H      -2.52      -5.16      12.52
H      -7.15       8.64      11.43
H      11.03       7.70       7.40
H      11.36       5.43       6.50
H      12.23       3.14       6.75
H      -5.14       4.65      13.12
H      -6.06       6.91      12.85
H       4.18      -1.86       5.88
H       8.86      -1.02       5.20
H      10.93      -2.04       6.00
H       2.96      12.46       8.49
H      -1.74      11.65       9.26
H      10.00       8.40       3.10
H       9.62       6.72       1.32
H       2.21      -3.86      12.55
H       6.11       7.52       4.75
H      -0.17      -4.34      16.86
H       5.79       5.77       3.03
H      14.98       1.88       2.44
H      15.24       0.72       4.64
H       4.91       8.97      12.86
H       7.26      16.09       0.41
H       3.54       8.05      14.72
H       7.55      14.93       2.58
H      -0.79      -0.12       5.37
H      -0.68       0.14       7.15
H      -1.27       1.46       6.09
H      -5.82       9.08       7.83
H      -5.35      10.82       7.97
H      -5.34      10.00       6.38
H       4.33      -4.76      10.57
H      -4.91      12.10      10.40
H       2.78      -4.19       9.87
H       6.10       0.77       3.72
H       7.50      -0.32       3.47
H       7.49       0.82       4.86
H      11.97       0.13      10.59
H      -6.62       0.36      12.22
H      11.59      -1.01      11.92
H      -2.40      -4.19      16.45
H      -1.82      -5.89      16.55
H      -3.33      -5.50      15.65
H      10.02      -4.40      15.88
H       9.55      -5.68      17.08
H       8.30      -4.63      16.32
H      -2.79       3.01       9.60
H      -3.19       2.37       7.95
H      -1.50       2.84       8.37
C      16.49      -1.36       6.11
C       5.36      12.90       7.20
C       8.82      10.49       4.97
C      -4.77      -0.78      10.58
C       7.50       9.28       6.24
C      -3.04       0.26       9.66
C      13.35      -3.07       8.08
C       8.17      14.69       5.18
C      15.86      -1.93       4.97
C       4.62      14.08       7.39
C       8.16       9.22       5.00
C      -4.36       0.51      10.16
C      -0.06      -3.57      11.04
C      -9.47      10.22       9.77
C      -6.22      13.53       6.50
C      13.31      -5.23      11.87
C       5.59      10.78      10.92
C       1.54      -2.67       7.75
C      -1.80      -4.62      11.92
C      -8.08      10.53       8.08
C      -0.46      -4.26      12.20
C      -8.33       9.66       9.16
C       2.47      -3.54       7.14
C       4.90      11.47      11.93
C      -7.22       7.92      10.62
C      -7.77       8.32       9.39
C      -7.85       7.39       8.34
C      11.94       6.08       8.49
C      -6.80       5.68       9.73
C      -6.72       6.62      10.80
C      11.83       5.12       7.43
C      12.31       3.85       7.57
C      -6.37       3.44       8.79
C      -6.28       4.37       9.88
C      -5.66       3.99      11.11
C      -5.60       4.94      12.18
C      -6.12       6.20      12.03
C      -5.81       2.17       8.98
C      -5.10       1.78      10.12
C      -5.08       2.71      11.17
C      -3.25      13.46       7.93
C       3.94      -3.56       7.18
C       4.70      -2.62       6.46
C       6.10      -2.66       6.45
C       6.78      -3.67       7.19
C      -1.84      13.38       7.94
C       6.89      -1.70       5.71
C       8.26      -1.74       5.75
C       8.95      -2.75       6.50
C       0.34      14.26       7.21
C       1.02      13.22       7.93
C       0.20      12.29       8.67
C      -1.17      12.38       8.68
C      10.36      -2.80       6.54
C       3.16      14.19       7.24
C       2.42      13.21       7.92
C       0.29      -4.33      13.44
C      -0.34      -4.57      14.71
C       0.34      -4.31      15.89
C       1.67      -3.87      15.90
C       2.34      -3.80      14.66
C       1.65      -4.00      13.47
C       8.87       6.90       2.09
C       9.07       7.84       3.08
C       7.66       6.18       2.04
C       8.07       8.13       4.03
C       6.90       7.33       4.03
C       6.71       6.35       3.06
C      15.41      -1.25       3.77
C       7.43      16.02       2.56
C       7.27      16.65       1.34
C      15.08       0.06       1.29
C      15.05       0.79       2.49
C      15.21       0.15       3.71
C      10.07      -6.81      14.64
C      10.82      -6.35      13.54
C       2.49       9.87      15.10
C       3.97      10.91      12.90
C       4.14       9.58      13.33
C       3.39       9.07      14.37
C      -1.25       0.37       6.24
C      -5.85      10.06       7.35
C       3.47      -5.05       9.95
C       6.87       0.17       4.22
C      12.37      -0.38      11.48
C      -2.32      -5.14      15.91
C       9.26      -5.13      16.17
C      -2.43       2.40       8.76
N      -2.35      -2.32       6.91
N       6.58      13.05       7.77
N       8.53      11.21       6.07
N      -3.80      -1.68      10.35
N       7.73      10.47       6.85
N      -2.73      -1.03       9.75
N      14.52      -3.71       8.32
N       8.85      14.46       6.32
N      -1.07      -3.50      10.17
N      -9.86      11.32       9.10
N      -7.53      13.84       6.73
N      14.25      -5.17      10.92
N       6.47      11.59      10.32
N       0.28      -3.06       7.50
N      -2.14      -4.15      10.71
N      -8.97      11.54       8.08
N       2.22      -3.27      17.04
N       7.27       5.34       0.98
N      15.23       0.81       0.11
N       2.05       9.22      16.26
N       1.69      -1.53       8.58
N      13.38       1.19       7.88
N      -4.33       2.34      12.39
N       9.71      11.12       4.06
N       0.77      11.16       9.43
N       3.77      -3.48      14.59
N      10.48      -5.01      13.00
O      -2.63      -0.05       6.37
O       2.83      -1.12       8.85
O       0.63      -0.99       9.03
O      -7.20      10.47       7.05
O      12.65       0.21       8.10
O      13.96       1.43       6.82
O      -3.10       2.40      12.33
O      -4.99       2.01      13.38
O      -3.97      12.51       8.64
O       6.15      -0.79       5.00
O      10.34      12.14       4.47
O       9.84      10.68       2.91
O       1.86      10.69       9.07
O       0.11      10.73      10.39
O       4.20      -3.01      13.52
O       4.46      -3.70      15.60
O      13.42      -1.28      11.12
O      -1.63      -4.98      14.67
O      10.85      -4.02      13.66
O       9.87      -4.97      11.93
O       9.03      -6.06      15.09
O      -2.08       1.08       9.19
