124

Cu       9.81       8.01      13.32
Cu       7.87      10.47      13.85
Cu      10.33       9.92      15.81
Cu      13.62      19.88      22.31
Cu      15.56      22.33      21.79
Cu      13.09      21.79      19.84
Cu      21.47       3.85      10.41
Cu      19.52       1.40       9.88
Cu      21.99       1.94       7.93
Cu       1.93      15.66       1.43
Cu       3.88      13.21       1.96
Cu       1.40      13.75       3.91
H       8.48       6.77      10.69
H       5.84      10.13      11.43
H      12.94       8.54      17.05
H      12.19       5.95      13.67
H       6.64      13.08      15.21
H       9.97      12.29      17.86
H      14.94      18.62       1.20
H      17.59      21.97       0.45
H      10.48      20.41      18.59
H      11.25      17.81      21.97
H      16.76       1.25      20.42
H      13.42       0.48      17.77
H      20.15       5.08      13.05
H      17.49       1.74      12.30
H       1.26       3.31       6.69
H       0.49       5.90      10.08
H      18.33      22.48       8.52
H      21.67      23.25       5.87
H       3.27      16.92      22.55
H       5.93      13.58      23.29
H      22.15      15.14       5.15
H      22.92      17.73       1.77
H       5.12      10.61       3.34
H       1.77      11.39       5.97
C       7.97       7.65      11.07
C       6.82       8.29      10.56
C       6.61       9.37      11.45
C      12.57       8.04      16.16
C      13.06       6.90      15.51
C      12.17       6.71      14.43
C       7.51      12.70      15.72
C       8.15      13.19      16.88
C       9.22      12.29      17.08
C      15.45      19.50       0.82
C      16.60      20.14       1.33
C      16.81      21.21       0.44
C      10.86      19.91      19.48
C      10.38      18.76      20.12
C      11.26      18.58      21.20
C      15.88       0.87      19.91
C      15.25       1.36      18.75
C      14.17       0.47      18.55
C      19.63       4.20      12.67
C      18.49       3.57      13.18
C      18.27       2.50      12.28
C       0.88       3.81       7.58
C       1.37       4.95       8.24
C       0.48       5.14       9.31
C      19.21      22.86       8.01
C      19.84      22.36       6.85
C      20.92      23.26       6.65
C       3.79      16.04      22.92
C       4.94      15.41      22.42
C       5.15      14.33      23.31
C      22.53      15.63       4.26
C      22.04      16.79       3.61
C      22.93      16.96       2.53
C       4.24      10.99       3.84
C       3.60      10.50       5.00
C       2.52      11.39       5.19
C      17.41      19.80       2.43
C      18.20      19.60       3.33
C       6.02       7.96       9.45
C       5.23       7.76       8.55
C       5.74      15.74      21.31
C       6.53      15.95      20.41
C      17.69       3.89      14.29
C      16.91       4.09      15.20
C      20.95      17.62       3.94
C      20.08      18.44       4.13
C      14.16       6.08      15.83
C      15.04       5.26      16.01
C       2.47       5.78       7.92
C       3.35       6.60       7.75
C       9.29      17.93      19.80
C       8.41      17.11      19.61
C      19.51      21.26       6.04
C      19.33      20.36       5.24
C       7.83      14.29      17.69
C       7.65      15.19      18.49
C      15.59       2.45      17.93
C      15.79       3.33      17.12
C       3.93       9.41       5.82
C       4.11       8.52       6.63
N       7.56       9.36      12.40
N       8.40       8.30      12.17
N      11.23       7.67      14.44
N      11.47       8.50      15.52
N       9.21      11.35      16.12
N       8.15      11.60      15.28
N      15.88      21.22      23.23
N      15.04      20.16      23.46
N      12.19      19.54      21.20
N      11.95      20.37      20.12
N      14.21      23.22      19.52
N      15.28      23.46      20.36
N      19.21       2.50      11.33
N      20.06       3.57      11.56
N      22.90       4.18       9.30
N      23.14       3.35       8.22
N      20.87       0.52       7.61
N      19.80       0.27       8.45
N       4.19      14.32       0.52
N       3.35      15.38       0.28
N       0.50      16.00       2.54
N       0.26      15.17       3.62
N       2.53      12.33       4.23
N       3.59      12.08       3.39
N      19.13      19.40       4.31
N       4.30       7.56       7.58
N       7.46      16.15      19.43
N      15.99       4.30      16.18
