160

Li       7.01       1.61      11.10
Li       1.37      14.85       5.35
Li       9.84       2.87       6.62
Li       4.19      13.58       9.83
Li       7.10       6.62       2.87
Li       1.45       9.83      13.58
Li       4.27       5.35      14.85
Li       9.92      11.10       1.61
Zn       9.50       2.87       9.60
Zn       3.86      13.58       6.86
Zn       1.04       1.37       5.36
Zn       6.68      15.08      11.10
Zn       4.61       5.36       1.37
Zn      10.25      11.10      15.08
Zn       1.78       6.86      13.58
Zn       7.43       9.60       2.87
H       0.97       4.18      10.35
H       6.61      12.27       6.11
H       3.79       2.12       4.04
H       9.44      14.33      12.41
H       1.85       4.04       2.12
H       7.49      12.41      14.33
H      10.32       6.11      12.27
H       4.67      10.35       4.18
H       4.20       2.29      12.46
H       9.84      14.17       3.99
H       7.02       4.24       5.94
H       1.37      12.22      10.51
H       9.91       5.94       4.24
H       4.27      10.51      12.22
H       7.09       3.99      14.17
H       1.45      12.46       2.29
H       2.59       0.45       8.91
H       8.24      16.00       7.54
H       5.41       0.68       7.77
H      11.06      15.77       8.68
H       0.23       7.77       0.68
H       5.87       8.68      15.77
H       8.69       7.54      16.00
H       3.05       8.91       0.45
C       0.88       2.38       8.24
C       6.52      14.08       8.21
C       3.70       0.02       5.85
C       9.35      16.44      10.60
C       1.94       5.85       0.02
C       7.59      10.60      16.44
C      10.41       8.21      14.08
C       4.76       8.24       2.38
C       2.62       4.46      12.50
C       8.26      12.00       3.95
C       5.44       4.27       3.77
C      11.09      12.18      12.68
C       0.20       3.77       4.27
C       5.84      12.68      12.18
C       8.67       3.95      12.00
C       3.02      12.50       4.46
C       4.40       0.06      10.80
C      10.04      16.39       5.65
C       7.22       2.58       8.16
C       1.58      13.88       8.29
C       9.71       8.16       2.58
C       4.07       8.29      13.88
C       6.89       5.65      16.39
C       1.24      10.80       0.06
C       1.70       2.33       9.49
C       7.34      14.13       6.97
C       4.52       1.26       5.90
C      10.16      15.19      10.55
C       1.12       5.90       1.26
C       6.77      10.55      15.19
C       9.59       6.97      14.13
C       3.95       9.49       2.33
C       1.67       3.35      10.44
C       7.31      13.10       6.01
C       4.49       2.21       4.88
C      10.13      14.24      11.58
C       1.16       4.88       2.21
C       6.80      11.58      14.24
C       9.62       6.01      13.10
C       3.98      10.44       3.35
C       2.57       3.33      11.51
C       8.22      13.12       4.94
C       5.40       3.28       4.89
C      11.04      13.17      11.56
C       0.25       4.89       3.28
C       5.89      11.56      13.17
C       8.71       4.94      13.12
C       3.07      11.51       3.33
C       3.49       2.28      11.64
C       9.13      14.18       4.82
C       6.31       3.41       5.95
C       0.66      13.04      10.50
C      10.62       5.95       3.41
C       4.98      10.50      13.04
C       7.80       4.82      14.18
C       2.16      11.64       2.28
C       3.47       1.22      10.72
C       9.11      15.23       5.73
C       6.29       2.49       7.01
C       0.64      13.96       9.45
C      10.64       7.01       2.49
C       5.00       9.45      13.96
C       7.82       5.73      15.23
C       2.18      10.72       1.22
C       2.58       1.26       9.64
C       8.22      15.20       6.81
C       5.40       1.42       6.97
C      11.05      15.04       9.48
C       0.24       6.97       1.42
C       5.89       9.48      15.04
C       8.71       6.81      15.20
C       3.06       9.64       1.26
O      11.04       2.98       8.22
O       5.40      13.47       8.23
O       2.58      16.45       5.24
O       8.22       0.00      11.21
O       3.07       5.24      16.45
O       8.71      11.21       0.00
O       0.25       8.23      13.47
O       5.89       8.22       2.98
O       1.40       1.80       7.24
O       7.05      14.65       9.22
O       4.23      15.46       6.42
O       9.87       0.99      10.03
O       1.42       6.42      15.46
O       7.06      10.03       0.99
O       9.88       9.22      14.65
O       4.24       7.24       1.80
O       1.74       5.40      12.32
O       7.39      11.06       4.13
O       4.57       4.10       2.83
O      10.21      12.36      13.63
O       1.08       2.83       4.10
O       6.72      13.63      12.36
O       9.54       4.13      11.06
O       3.90      12.32       5.40
O       3.48       4.44      13.41
O       9.12      12.02       3.04
O       6.30       5.19       3.79
O       0.66      11.27      12.66
O      10.63       3.79       5.19
O       4.98      12.66      11.27
O       7.81       3.04      12.02
O       2.16      13.41       4.44
O       5.53       0.25      11.42
O      11.18      16.21       5.04
O       8.35       3.19       7.98
O       2.71      13.26       8.48
O       8.58       7.98       3.19
O       2.93       8.48      13.26
O       5.75       5.04      16.21
O       0.11      11.42       0.25
O       4.09      15.43      10.26
O       9.73       1.02       6.19
O       6.91       2.03       9.25
O       1.27      14.42       7.21
O      10.02       9.25       2.03
O       4.38       7.21      14.42
O       7.20       6.19       1.02
O       1.55      10.26      15.43
