89

Zn       7.52       7.52       9.81
Zn       9.79       9.79       9.81
Zn       9.79       7.54       7.53
Zn       7.54       9.79       7.55
H       3.45      10.15       7.12
H       1.39      10.85       6.37
H      13.90       7.28       7.02
H       0.12       7.27       6.85
H      13.92      10.06      10.31
H       3.36       7.16      10.21
H       7.28      13.91       7.03
H       7.22       0.13       6.92
H       7.23       3.37      10.26
H      10.09       3.44       7.05
H      10.77       1.37       6.29
H      10.07      13.91      10.31
H       7.07      10.15       3.44
H      10.09      10.24      13.91
H      10.78      10.99      15.98
H       7.17       7.09      13.97
H      10.23       7.22       3.38
H      10.27       7.17      17.18
H      16.43      10.07      10.27
H       0.86       7.19      10.15
H       7.27       0.86      10.23
H      10.09      16.42      10.27
H       7.07      10.18       0.94
H       7.19       7.13      16.47
C       2.87       9.50       7.78
C       1.47       9.51       7.75
C      14.45       7.90       7.73
C      15.85       7.92       7.69
C      14.47       9.46       9.59
C      15.86       9.46       9.56
C       2.83       7.82       9.52
C       1.43       7.84       9.49
C       7.90      14.46       7.74
C       7.92      15.85       7.71
C       7.86       2.83       9.55
C       7.88       1.44       9.53
C       9.47       2.86       7.74
C       9.48       1.47       7.72
C       9.47      14.47       9.59
C       9.48      15.86       9.56
C       7.76       9.52       2.87
C       7.76       9.54       1.48
C       9.46       9.56      14.48
C       9.46       9.59      15.88
C       7.81       7.78      14.51
C       7.82       7.81      15.90
C       9.54       7.87       2.85
C       9.53       7.89       1.45
C       5.04       8.65       8.68
C       3.55       8.65       8.66
C       0.73       8.68       8.61
C      12.28       8.64       8.69
C      13.77       8.67       8.67
C      16.57       8.70       8.62
C       8.66      12.27       8.68
C       8.68      13.77       8.67
C       8.71      16.57       8.63
C       8.64       5.04       8.66
C       8.65       3.54       8.65
C       8.69       0.73       8.62
C       8.66       8.67       5.05
C       8.65       8.68       3.56
C       8.64       8.73       0.76
C       8.64       8.65      12.30
C       8.63       8.66      13.80
C       8.64       8.71      16.61
O       8.66       8.65       8.68
O       5.61       7.85       9.50
O       0.77      10.33       6.90
O      11.70       9.44       9.51
O      16.48       7.15       6.75
O      11.69       7.84       7.89
O       5.63       9.45       7.88
O       9.44      11.69       9.51
O       7.13      16.49       6.79
O       9.43       5.62       7.84
O       7.85       5.61       9.48
O      10.27       0.75       6.85
O       7.86      11.70       7.87
O       9.48       7.87       5.62
O       7.85       7.83      11.73
O      10.25      10.45      16.60
O       9.44       9.46      11.72
O       7.84       9.45       5.64
O      10.41       7.07       0.80
