150

Zn       2.82       6.15       6.83
Zn       0.31      23.15       9.66
Zn       0.27      23.68       6.31
Zn      22.67       6.25      10.21
H      20.20       5.14       4.23
H       2.07      25.49      13.37
H      18.68      21.53      12.38
H       4.67       8.49       5.97
H       0.36      20.28       5.45
H      22.54       9.48      10.46
H      19.45       7.24      10.79
H       7.72       5.74       6.29
H      18.46      20.32       9.59
H      20.79       9.13       6.52
H      19.21       5.45       6.85
H       2.89      25.01      10.57
H      15.70      24.65      11.95
H       6.76       5.52       3.60
H      -1.51      21.67       4.70
H       5.26       8.65      10.88
H      14.35       5.42       7.25
H      12.49       9.10       9.90
H       7.74      25.05       9.54
H      14.14       9.40       7.62
H      12.61       7.44       6.27
H      14.23       7.10      10.89
H      14.40      19.52      15.51
H       8.55      12.10       2.53
H       5.23      10.66       0.82
H      10.12      10.93       0.47
H       1.03      15.35       6.53
H      17.28      13.59       9.89
H      13.79      19.50       1.08
H       9.59      11.93      14.34
H      21.35      15.36       9.95
H      16.42      13.68       6.41
C      20.95       4.43       4.54
C       1.48      26.07      12.66
C      18.07      22.38      12.08
C       5.08       7.59       5.52
C       0.11      20.53       6.48
C      22.25       9.18       9.46
C      19.63       6.74       9.84
C       7.55       5.42       7.31
C      18.84      20.55       8.60
C      21.34       9.00       7.45
C      19.50       5.82       7.82
C       2.68      25.02       9.51
C      16.55      23.98      11.86
C       6.14       6.06       4.30
C      -2.04      22.61       4.79
C       5.54       7.74      11.40
C       1.87       3.17       3.98
C       6.54       7.53      12.36
C      16.92      22.90      12.69
C       6.00       7.46       4.46
C      18.92      19.71       7.47
C      21.33       9.81       8.60
C      18.73       6.52       8.77
C       8.30       5.75       8.46
C      13.03       6.07       9.11
C      13.81       8.45       8.05
C      13.92       6.23       7.84
C      12.91       8.28       9.32
C      17.38       6.91       8.69
C       9.52       6.45       8.52
C      13.85       7.16       9.86
C      12.98       7.36       7.30
C      14.79       7.32       8.59
C      12.04       7.18       8.56
C      16.20       7.22       8.62
C      10.65       6.93       8.55
C       8.22       9.56       0.64
C       7.15      12.01       0.64
C      14.77      20.10      16.35
C       8.17      11.50       1.70
C      16.35      22.45      13.89
C       6.55       8.48       3.67
C       9.04      10.87       0.56
C       6.32      10.70       0.73
C      15.62      21.44      16.21
C       7.33      10.16       1.83
C      15.98      22.03      14.98
C       6.96       9.36       2.93
C      19.75      14.96       7.29
C      17.98      13.98       9.15
C      20.13      14.54       8.75
C      17.60      14.43       7.68
C      20.54      10.95       8.77
C      18.60      18.34       7.45
C      18.86      13.70       7.12
C      18.86      15.24       9.32
C      19.26      13.20       8.59
C      18.50      15.76       7.85
C      19.81      11.93       8.82
C      18.37      17.14       7.57
C       6.96      10.78      15.77
C       9.57      10.78      16.40
C      14.38      20.01       0.31
C       9.00      11.41      15.10
C       1.38       2.57       2.80
C       7.28       8.49      13.05
C       7.84      12.04      15.92
C       3.74      29.44      16.25
C       0.81       1.38       0.54
C       8.12      10.12      14.88
C       1.04       2.05       1.76
C       7.85       9.31      13.76
N       2.37       4.65       5.58
N      19.90      25.50      11.96
N      18.37      23.12      11.00
N       4.69       6.37       5.94
N       0.36      21.75       6.98
N       3.37       8.07       8.87
N      20.82       6.20       9.53
N       6.53       4.61       7.64
N      -0.05      21.75       8.30
N       2.80       7.98       7.63
N      20.76       5.64       8.29
N       1.63      24.34       9.00
N      17.44      24.11      10.86
N       5.35       5.43       5.18
N       3.21       3.58       5.75
N      19.35      26.50      11.18
N       8.75       8.21       0.77
N       6.61      13.37       0.55
N      18.87      16.14      10.46
N      18.84      12.79       6.00
N      24.97      10.76      15.28
N       3.36       0.76       0.12
N       4.22      28.06      16.28
N       7.36      13.43      15.86
O       7.95       7.28       0.56
O       9.93       8.09       1.14
O      13.13      23.55      16.70
O       7.30      14.28       1.03
O      21.36      14.59       9.34
O      16.35      14.35       7.13
O      17.83      16.31      11.09
O      19.96      16.71      10.68
O       0.53      12.37       5.58
O      17.72      12.46       5.56
O      24.18      10.00      15.84
O      24.76      11.47      14.29
O      11.77      11.50      16.25
O      -1.37      20.05       1.16
O       5.35      27.87      15.80
O       3.44      27.20      16.70
O      25.69      13.65      16.44
O       8.08      14.26      15.29
