188

Cd       3.07      14.77       0.18
Cd       1.99       0.24       8.86
Cd       9.11       0.24      17.19
Cd      10.19      14.77       8.51
H       4.34       0.00      12.97
H       0.73      15.00       4.29
H       7.84      15.00       4.39
H      11.46       0.00      13.08
H       8.61       0.23      13.61
H      10.69      14.77       4.92
H       3.58      14.77       3.76
H       1.49       0.23      12.44
H       2.52       7.81      17.14
H       2.54       7.20       8.46
H       9.66       7.20       0.23
H       9.64       7.81       8.91
H       3.00       6.25      16.85
H       2.07       8.76       8.16
H       9.19       8.76       0.52
H      10.11       6.25       9.20
H       4.62       2.52      15.76
H       0.45      12.48       7.08
H       7.56      12.48       1.61
H      11.74       2.52      10.29
H       6.95       0.62       9.63
H      -1.89      14.38       0.94
H       5.23      14.38       7.74
H      14.07       0.62      16.43
H       5.26       4.34       2.92
H      -0.19      10.66      11.60
H       6.92      10.66      14.45
H      12.38       4.34       5.77
H       4.61       5.00      16.06
H       0.46      10.00       7.37
H       7.57      10.00       1.31
H      11.73       5.00      10.00
H      10.01       0.33      11.55
H       9.29      14.67       2.86
H       2.17      14.67       5.82
H       2.89       0.33      14.50
H       9.30       0.38      10.02
H      10.00      14.62       1.33
H       2.88      14.62       7.35
H       2.19       0.38      16.03
H       5.33       1.87       2.42
H      -0.26      13.13      11.10
H       6.85      13.13      14.95
H      12.45       1.87       6.27
H       3.94       9.60      16.10
H       1.12       5.40       7.41
H       8.24       5.40       1.27
H      11.06       9.60       9.95
H       4.46      10.43       2.95
H       0.60       4.58      11.63
H       7.72       4.58      14.42
H      11.58      10.43       5.74
H       3.33      12.02      15.81
H       1.74       2.98       7.12
H       8.86       2.98       1.56
H      10.44      12.02      10.25
H       3.84      12.82       2.46
H       1.23       2.19      11.15
H       8.35       2.19      14.90
H      10.95      12.82       6.22
C       4.34       0.34      10.32
C       0.73      14.67       1.64
C       7.85      14.67       7.05
C      11.45       0.33      15.73
C       6.45       0.11      13.44
C      -1.38      14.90       4.76
C       5.73      14.90       3.92
C      13.57       0.11      12.61
C       4.15      14.93      14.91
C       0.92       0.07       6.22
C       8.04       0.07       2.46
C      11.26      14.93      11.15
C       5.54       0.32      11.21
C      -0.47      14.69       2.53
C       6.65      14.69       6.15
C      12.65       0.32      14.84
C       7.95       0.44      11.55
C      11.35      14.56       2.86
C       4.23      14.56       5.82
C       0.84       0.44      14.51
C       5.35       0.13      12.59
C      -0.28      14.87       3.90
C       6.84      14.87       4.78
C      12.46       0.13      13.47
C       7.75       0.26      12.93
C      11.55      14.74       4.25
C       4.43      14.74       4.44
C       0.63       0.26      13.12
C       4.89       4.87       0.85
C       0.18      10.13       9.53
C       7.29      10.13      16.52
C      12.01       4.87       7.84
C       4.75       2.97      16.75
C       0.31      12.03       8.06
C       7.43      12.03       0.62
C      11.87       2.97       9.30
C       6.82       0.47      10.70
C      -1.75      14.53       2.01
C       5.36      14.53       6.67
C      13.94       0.47      15.35
C       5.11       3.97       1.90
C      -0.04      11.03      10.59
C       7.08      11.03      15.46
C      12.22       3.97       6.78
C       4.97       6.29       1.14
C       0.10       8.71       9.83
C       7.21       8.71      16.23
C      12.09       6.29       7.54
C       4.70       4.35      16.93
C       0.37      10.65       8.24
C       7.48      10.65       0.44
C      11.82       4.35       9.13
C       4.68       8.47       1.16
C       0.39       6.54       9.84
C       7.50       6.54      16.21
C      11.80       8.47       7.53
C       5.15       2.61       1.63
C      -0.08      12.39      10.32
C       7.03      12.39      15.74
C      12.27       2.61       7.05
C       4.22       9.82       0.88
C       0.84       5.18       9.56
C       7.96       5.18      16.49
C      11.34       9.82       7.81
C       3.89      10.27      16.96
C       1.18       4.73       8.28
C       8.29       4.73       0.41
C      11.01      10.27       9.09
C       4.20      10.74       1.94
C       0.87       4.26      10.62
C       7.98       4.26      15.43
C      11.32      10.74       6.75
C       3.57      11.62      16.79
C       1.50       3.39       8.11
C       8.61       3.39       0.58
C      10.68      11.62       9.26
C       3.86      12.06       1.68
C       1.20       2.94      10.36
C       8.32       2.94      15.69
C      10.98      12.06       7.01
N       4.99       2.12       0.39
N       0.08      12.88       9.07
N       7.19      12.88      16.98
N      12.10       2.12       8.29
N       4.27       7.31       0.54
N       0.79       7.69       9.22
N       7.91       7.69      16.83
N      11.39       7.31       8.15
N       3.32       7.22      16.88
N       1.75       7.79       8.19
N       8.87       7.79       0.49
N      10.43       7.22       9.18
N       5.59       8.16       2.09
N      -0.52       6.84      10.78
N       6.60       6.84      15.27
N      12.70       8.16       6.59
N       5.77       6.82       2.08
N      -0.70       8.19      10.77
N       6.41       8.19      15.29
N      12.89       6.82       6.60
N       9.21       0.63      11.01
N      10.09      14.37       2.32
N       2.98      14.37       6.36
N       2.09       0.63      15.05
N       3.56      12.49       0.44
N       1.51       2.51       9.12
N       8.62       2.51      16.93
N      10.68      12.49       8.25
O       5.10      14.95      15.75
O      14.20       0.05       7.07
O       7.08       0.05       1.62
O      -2.02      14.95      10.30
O       3.18       0.29      10.87
O       1.89      14.71       2.19
O       9.01      14.71       6.49
O      10.29       0.29      15.18
O       4.48       0.38       9.05
O       0.59      14.62       0.37
O       7.70      14.62       8.31
O      11.60       0.38      17.00
O       2.93      14.78      15.28
O       2.14       0.23       6.59
O       9.26       0.23       2.09
O      10.04      14.78      10.78
