54

Al       6.49       5.77       8.70
Al       3.08       5.77       8.71
H       4.80       4.66      10.10
H       8.19       6.89       7.32
H       6.81       9.91       9.21
H       6.16       1.63       8.23
H       6.11       6.56      12.56
H       5.93       6.73      15.05
H      10.09       5.57      15.37
H       2.78       5.97       2.08
H       6.83       5.03       4.79
H       6.96       4.87       2.31
C       8.24       5.95      11.08
C       8.15       3.38       8.64
C       4.73       5.59       6.33
C       4.82       8.16       8.78
C       8.24       1.88       8.63
C       4.73       9.66       8.81
C       2.61       1.19       8.89
C      10.36      10.34       8.55
C       5.88      10.43       8.99
C       7.09       1.11       8.45
C       8.19       6.03      12.57
C       6.98       6.37      13.20
C       6.87       6.46      14.58
C       7.99       6.17      15.39
C       9.21       5.82      14.78
C       9.29       5.76      13.39
C       7.91       6.23      16.80
C       4.94       5.35       0.60
C       4.88       5.40       2.01
C       3.67       5.73       2.66
C       3.63       5.78       4.04
C       4.75       5.52       4.84
C       5.95       5.21       4.18
C       6.02       5.13       2.80
N       3.89       1.92       8.94
N       9.08       9.62       8.50
O       7.12       5.73      10.50
O       9.25       3.98       8.87
O       3.60       5.44       6.91
O       5.96       7.63       8.94
O       5.85       5.80       6.90
O       3.73       7.56       8.55
O       9.37       6.09      10.52
O       7.01       3.90       8.46
O       4.79       5.22       9.31
O       8.19       6.32       8.10
O       4.35       2.23       7.84
O       4.43       2.08      10.04
O       8.54       9.46       7.40
O       8.62       9.30       9.60
F       3.66       5.39      12.86
F       9.26       6.13       4.60
