179

Zn       1.54       8.99      17.84
Zn       4.71       3.25       1.45
Zn       4.71       5.74      16.39
H       8.80       1.54       0.39
H       8.80       7.45      17.46
H       0.63       2.18       1.08
H       0.63       6.81      16.76
H       3.87      -1.01       2.90
H       3.87      10.00      14.95
H       2.72       0.04       3.78
H       2.72       8.95      14.06
H       3.11      13.99       1.36
H       3.11      -5.00      16.48
H       2.39      11.70       2.05
H       2.39      -2.71      15.79
H       8.03      14.26       5.15
H       8.03      -5.26      12.69
H       1.77      -1.77       5.64
H       1.77      10.77      12.20
H       6.79       1.05       2.93
H       6.79       7.94      14.91
H       7.36      11.98       5.87
H       7.36      -2.99      11.97
H       0.91      10.25       3.37
H       0.91      -1.26      14.47
H       4.79       6.31       2.27
H       4.79       2.68      15.57
H       7.91       3.50       2.60
H       7.91       5.49      15.24
H       2.40      -0.61       7.73
H       2.40       9.60      10.11
H       8.89       2.38       7.01
H       8.89       6.61      10.83
H       7.44       2.22       5.02
H       7.44       6.77      12.82
H       5.99      -0.56       1.82
H       5.99       9.55      16.03
H       6.28      14.97       2.59
H       6.28      -5.98      15.25
H       8.54       9.98       4.98
H       8.54      -0.98      12.86
H       0.55      -3.16      17.80
H       0.55      12.15       0.04
H       0.27       5.63       1.59
H       0.27       3.36      16.25
H       1.22       1.48       8.42
H       1.22       7.51       9.42
H       7.38       8.13       3.99
H       7.38       0.86      13.85
H       6.08       8.37       2.81
H       6.08       0.62      15.03
H       8.00       9.56       2.01
H       8.00      -0.56      15.83
H       9.09       8.21       2.29
H       9.09       0.78      15.56
H       8.65       7.27       0.24
H       8.65       1.72      17.61
H       6.91       7.44       0.40
H       6.91       1.56      17.44
H       1.62       6.38       3.07
H       1.62       2.61      14.77
H       2.76       7.93       4.61
H       2.76       1.06      13.23
H       4.60      10.58       0.07
H       4.60      -1.59      17.77
H       4.19       9.91       4.99
H       4.19      -0.92      12.85
H       5.78      12.09       1.62
H       5.78      -3.10      16.22
H       5.59      11.77       4.09
H       5.59      -2.78      13.75
C       1.58      14.96       2.54
C       1.58      -5.97      15.30
C       3.04      -0.29       2.78
C       3.04       9.28      15.06
C       3.52       0.91       2.00
C       3.52       8.08      15.84
C       0.52      14.87       3.43
C       0.52      -5.88      14.41
C       2.28      13.84       2.05
C       2.28      -4.85      15.79
C       9.34      -1.02       3.90
C       9.34      10.01      13.94
C       0.11      13.57       3.85
C       0.11      -4.58      13.99
C       1.88      12.58       2.44
C       1.88      -3.59      15.40
C       0.22      -0.36       5.11
C       0.22       9.36      12.73
C       8.30      -0.50       3.15
C       8.30       9.49      14.69
C       8.55      13.38       4.76
C       8.55      -4.39      13.08
C       0.80      12.41       3.34
C       0.80      -3.42      14.50
C       1.26      -0.86       5.94
C       1.26       9.85      11.90
C       9.03       0.83       5.52
C       9.03       8.16      12.33
C       7.60       0.67       3.55
C       7.60       8.33      14.29
C       8.17      12.11       5.16
C       8.17      -3.12      12.68
C       0.38      11.12       3.76
C       0.38      -2.13      14.08
C       5.76       5.84       2.44
C       5.76       3.15      15.40
C       7.35       4.43       2.64
C       7.36       4.56      15.20
C       1.99       4.34       1.40
C       1.99       4.65      16.44
C       1.60      -0.21       7.11
C       1.60       9.20      10.74
C       9.42       1.48       6.72
C       9.42       7.52      11.13
C       7.97       1.31       4.71
C       7.97       7.68      13.13
C       6.62      15.65       1.80
C       6.62      -6.66      16.05
C       8.85      10.97       4.65
C       8.85      -1.98      13.19
C       1.04       5.40       0.84
C       1.04       3.59      17.00
C       0.93       0.97       7.50
C       0.93       8.02      10.34
C       6.40      15.00       0.45
C       6.40      -6.00      17.40
C       7.06       7.92       2.96
C       7.06       1.08      14.88
C       8.08       8.46       1.96
C       8.08       0.53      15.89
C       2.31       7.39       1.26
C       2.31       1.60      16.58
C       7.86       7.99       0.51
C       7.86       1.01      17.34
C       2.21       7.21       2.67
C       2.21       1.79      15.17
C       3.06       8.45       0.74
C       3.06       0.54      17.11
C       2.85       8.07       3.53
C       2.85       0.92      14.31
C       3.74       9.34       1.62
C       3.74      -0.34      16.22
C       3.63       9.15       3.04
C       3.63      -0.16      14.80
C       4.54      10.41       1.14
C       4.54      -1.42      16.70
C       4.30      10.05       3.91
C       4.30      -1.06      13.93
C       5.20      11.26       2.01
C       5.20      -2.27      15.83
C       5.07      11.08       3.41
C       5.07      -2.09      14.43
N       6.03       4.54       2.31
N       6.03       4.46      15.53
N       6.87       6.48       2.84
N       6.87       2.52      15.00
N       7.90       5.59       2.97
N       7.90       3.40      14.87
O       1.95      -0.89       2.08
O       1.95       9.88      15.77
O       3.07       1.15       0.85
O       3.07       7.84      16.99
O       0.29       1.47       0.48
O       0.29       7.52      17.36
O       4.41       1.63       2.57
O       4.41       7.36      15.27
O       3.24       4.55       1.23
O       3.25       4.44      16.61
O       5.30      -5.34      17.46
O       5.30      14.33       0.39
O       7.99      15.97       1.97
O       7.99      -6.98      15.87
O       1.46       3.36       1.96
O       1.46       5.64      15.88
O       1.67       6.60       0.36
O       1.67       2.39      17.48
O       7.20       7.02      17.34
O       7.20       1.97       0.51
