198

H      -2.39      11.08       7.15
H       1.57       7.94       2.57
H       7.71      -0.45       8.33
H       3.75       2.70      12.91
H      -1.58      10.35       8.57
H       0.76       6.35       2.74
H       6.90       0.28       6.91
H       4.56       4.28      12.74
H      -1.60      12.14       8.38
H       0.78       7.17       1.14
H       6.92      -1.51       7.10
H       4.54       3.46      14.34
H       0.51       0.47       7.91
H      -1.33       3.42      12.20
H       4.81      10.16       7.57
H       6.65       7.21       3.28
H      -0.48       1.90       8.34
H      -0.34       3.53      10.72
H       5.80       8.74       7.14
H       5.66       7.11       4.76
H      -0.94       0.92       6.91
H       0.12       4.51      12.14
H       6.26       9.71       8.57
H       5.20       6.12       3.34
H      -0.89       9.80      11.53
H       0.07       3.38       2.20
H       6.21       0.84       3.95
H       5.25       7.25      13.28
H       0.11      10.89      10.52
H      -0.93       4.72       1.55
H       5.21      -0.25       4.96
H       6.25       5.91      13.94
H      -1.20      11.58      11.53
H       0.38       4.03       0.53
H       6.52      -0.95       3.95
H       4.94       6.60      14.95
H       2.65       1.33       1.36
H      -3.47       9.84      13.75
H       2.67       9.31      14.12
H       8.79       0.80       1.73
H       2.46       3.11       1.37
H      -3.27      10.47      12.09
H       2.86       7.53      14.11
H       8.59       0.17       3.39
H      -0.67      -3.66      15.32
H      -0.15      -4.98      13.40
H       5.99      14.29       0.16
H       5.47      15.61       2.08
H       4.56      12.32       8.44
H       6.90       7.18       0.95
H       0.76      -1.69       7.04
H      -1.58       3.45      14.53
H       4.93      11.81      10.13
H       6.53       5.42       0.82
H       0.39      -1.18       5.35
H      -1.21       5.22      14.66
H       7.77      -3.13       9.82
H       3.69       0.34      14.88
H      -2.45      13.77       5.66
H       1.63      10.29       0.60
H       4.71       1.12       7.64
H       6.74       3.90      11.70
H       0.61       9.52       7.84
H      -1.42       6.73       3.78
H       4.25       1.81       9.22
H       7.21       2.68      10.48
H       1.07       8.82       6.26
H      -1.89       7.96       5.00
H       5.46       0.50       9.17
H       6.00       2.26      11.73
H      -0.14      10.13       6.32
H      -0.68       8.38       3.76
Pb       1.83      -1.34      12.02
Pb      -2.65      -1.06      12.42
Pb       3.49      11.97       3.46
Pb       7.97      11.70       3.07
Pb       5.73      -2.65      13.22
Pb      -0.41      13.29       2.27
C      -0.09      -2.47      10.07
C      -0.72       0.34      14.17
C       5.41      13.11       5.41
C       6.04      10.29       1.31
C      -1.00      -2.75       8.90
C       0.18       1.34      14.85
C       6.32      13.38       6.58
C       5.14       9.29       0.63
C      -4.55      12.54       8.37
C       3.73       7.32       0.77
C       9.87      -1.91       7.11
C       1.59       3.31      14.71
C      -1.66      -1.67       8.28
C       0.84       2.30      14.07
C       6.98      12.30       7.20
C       4.48       8.33       1.41
C      -2.16      11.21       8.21
C       1.34       6.99       2.07
C       7.48      -0.58       7.27
C       3.98       3.64      13.41
C      -0.51       0.88       7.92
C      -0.31       3.56      11.82
C       5.83       9.75       7.56
C       5.63       7.08       3.67
C       2.58      -3.42      14.07
C       8.88      -3.72      13.62
C       2.74      14.05       1.41
C      -3.56      14.36       1.86
C       2.66      -4.73      14.82
C       8.80      -4.90      14.57
C       2.66      15.36       0.66
C      -3.48      15.53       0.91
C      -0.14      10.77      14.25
C      11.60       1.20       0.32
C       5.46      -0.13       1.23
C      -6.28       9.44      15.16
C       5.47       1.11       0.57
C      -6.29      10.50      14.24
C      -0.15       9.52      14.91
C      11.61       0.13       1.24
C      -0.44      10.79      11.46
C      -0.38       3.81       1.29
C       5.76      -0.16       4.02
C       5.70       6.83      14.19
C       2.99       2.27       0.92
C      -3.81      10.59      13.03
C       2.33       8.36      14.57
C       9.13       0.04       2.45
C       4.93      -2.21      10.47
C       6.53       0.07      13.79
C       0.39      12.85       5.01
C      -1.21      10.57       1.69
C       4.65      -2.58       9.05
C       6.81       1.26      14.65
C       0.67      13.22       6.44
C      -1.49       9.37       0.84
C       1.70      12.78       8.59
C       9.76       7.21       0.47
C       3.62      -2.15       6.90
C      -4.44       3.43      15.01
C       3.87      -1.75       8.22
C      -4.69       2.33      14.17
C       1.45      12.39       7.26
C      10.01       8.30       1.32
C       4.27      12.41       9.49
C       7.19       6.23       0.49
C       1.05      -1.77       5.99
C      -1.87       4.40      14.99
C       4.55       0.89       8.70
C       6.91       2.83      11.52
C       0.77       9.74       6.78
C      -1.59       7.80       3.96
S      -3.68      11.22       9.20
S       2.87       6.08       1.70
S       9.00      -0.59       6.29
S       2.45       4.55      13.78
S      -1.58      -0.06       9.04
S       0.76       2.17      12.29
S       6.90      10.69       6.44
S       4.56       8.46       3.19
S       0.81      10.98      12.76
S      10.65       2.66       0.65
S       4.51      -0.34       2.72
S      -5.33       7.97      14.83
S       4.74       2.56       1.28
S      -5.56      10.36      12.63
S       0.58       8.07      14.20
S      10.88       0.28       2.85
S       2.60      11.74       9.71
S       8.86       5.78       1.03
S       2.72      -1.11       5.77
S      -3.54       4.85      14.45
S       3.17      -0.26       8.90
S      -3.99       2.23      12.53
S       2.15      10.90       6.58
S       9.31       8.41       2.95
O      -0.58      -2.32      11.24
O      -0.24      -0.69      13.62
O       5.90      12.96       4.24
O       5.56      11.32       1.87
O       1.15      -2.35       9.81
O      -1.97       0.63      14.15
O       4.17      12.98       5.67
O       7.29      10.00       1.33
O       1.65      -3.37      13.18
O      -2.47      -2.88      13.90
O       3.67      14.01       2.30
O       7.79      13.52       1.58
O       3.39      -2.48      14.31
O       8.07      -3.62      12.66
O       1.93      13.11       1.17
O      -2.75      14.25       2.82
O       4.01      -2.47      11.34
O       7.44      -0.84      13.72
O       1.31      13.11       4.14
O      -2.12      11.47       1.76
O       6.07      -1.77      10.77
O       5.39      -0.06      13.27
O      -0.75      12.40       4.71
O      -0.07      10.69       2.21
