94

Zr       0.12      14.92      12.65
Zr       0.11      12.56       0.12
Zr       0.15       2.50      14.98
Zr       0.05       0.10       2.46
Zr      10.53      15.08      15.11
Zr       2.64      15.06      15.13
H       2.05      12.98      13.14
H      11.07      13.15       2.04
H       2.03       2.01       1.95
H      11.25       2.02      12.97
H      12.32      10.74       2.03
H       0.10      12.44       3.04
H      12.30       1.96       4.20
H       0.05       3.06       2.58
H       0.73       4.35      13.22
H      12.32       1.08      10.21
H      12.35      13.07      10.89
H       0.06      12.01      12.50
H      12.12       4.16       1.74
H       0.98       1.16      10.47
H      12.09      10.90      13.32
H       0.99      13.27       4.13
H       9.05      15.08       7.50
H       4.09      15.08       7.56
H       9.05       7.50      15.13
H       4.09       7.50      15.11
C       9.82      14.91      11.93
C       3.31      11.92       0.11
C       9.80      11.91      15.10
C       3.37       0.01      11.98
C       3.39       3.06      14.96
C       9.77       0.15       3.11
C       3.31      15.01       3.14
C       9.74       3.08       0.04
C       7.30      15.06       8.75
C       5.87      15.08       8.77
C       5.18      15.08       7.55
C       5.84      15.08       6.31
C       7.27      15.10       6.30
C       7.96      15.08       7.52
C       7.28       8.73      15.13
C       5.86       8.73      15.14
C       5.17       7.50      15.11
C       5.86       6.28      15.09
C       7.28       6.28      15.12
C       7.96       7.50      15.13
C       5.11       5.08      15.04
C       4.39       4.10      14.99
C       8.74       4.12       0.03
C       8.03       5.08      15.14
C       5.07       9.93       0.04
C       4.31      10.88       0.09
C       8.80      10.88      15.10
C       8.04       9.92      15.12
C       5.07      15.05       5.13
C       4.31      15.02       4.18
C       8.01       0.05       5.10
C       8.77       0.12       4.15
C       4.37       0.02      10.93
C       5.11      -0.01       9.97
C       8.82      14.95      10.89
C       8.07      15.01       9.94
O      11.03      14.85      11.51
O       9.44      14.93      13.14
O       2.10      11.51       0.13
O       3.71      13.13       0.10
O      11.01      11.49      15.09
O       9.42      13.12      15.14
O       2.16       0.10      11.57
O       3.78      15.01      13.18
O       0.16      13.13      11.52
O       0.09       1.33      10.85
O       0.04      11.34      13.32
O       0.05      11.45       1.91
O      11.98      13.98      14.12
O       1.53      13.57      13.71
O       2.19       3.49      14.88
O       3.77       1.85      15.03
O      10.97       0.22       3.53
O       9.38       0.09       1.90
O       2.10      14.95       3.54
O       3.72      15.09       1.93
O      10.93       3.48       0.20
O       9.38       1.86      15.02
O       0.07       3.72       1.78
O      12.88       3.81      13.47
O       0.11       1.90       3.57
O       0.11      13.26       3.69
O       1.49       1.45       1.37
O      11.94       1.03       0.93
O       1.20       0.95      14.03
O      11.60      13.71       1.46
O      11.69       1.38      13.56
O       1.15      14.07       1.04
