46

Al       0.02       3.97       6.92
H       1.94       6.05       3.24
H       2.36       8.14       1.91
H      -1.32      10.38       5.57
H      -2.71       1.89      13.12
H      -1.81       6.06      10.58
H      -2.04       6.13      13.08
H       2.13      -0.36       1.90
H       1.07      -0.07       6.73
H       0.80      -2.25       5.53
C       1.97       2.22       5.84
C       2.02       5.75       5.89
C      -1.98       3.95       8.97
C      -0.63      11.67       0.95
C      -1.12      10.62       2.91
C      -0.63      12.84       2.90
C       2.10       7.01       3.74
C       2.33       8.17       3.00
C      -1.42       9.38       3.66
C      -1.47       9.43       5.06
C      -1.67       8.27       5.80
C      -1.86       7.04       5.14
C      -2.49       2.80      12.57
C      -2.33       2.76      11.19
C      -2.08       3.93      10.46
C      -1.99       5.15      11.16
C      -2.12       5.19      12.54
C      -2.38       4.01      13.25
C       1.92      -0.30       2.97
C       2.12       0.89       3.65
C       1.82       0.98       5.02
C       1.32      -0.16       5.68
C       1.16      -1.36       5.01
C       1.46      -1.44       3.64
N      -0.97      10.53       1.58
N      -0.98      11.76       3.62
N      -0.43      12.85       1.57
Cl      -1.75       8.39       7.52
Cl       1.46       1.24      10.37
Cl       2.67       2.25       2.74
O       1.08       4.62       8.37
O       1.09       2.41       6.74
O       1.07       4.95       5.61
O      -1.01       3.34       8.42
O      -1.02       5.53       6.74
O      -1.01       2.99       5.62
