75

Zn      -1.12       0.82      14.86
Zn      -1.15       1.65      17.98
Zn       1.48       6.02       1.91
H      -3.05       4.98      16.12
H       2.05      -2.19      14.82
H       4.65      -2.12      14.83
H       1.26       5.07      16.09
H       3.31       0.56      17.17
H       3.34       0.04      15.47
H      -5.57       2.76      18.79
H      -2.97       6.81       1.29
H       3.38       1.90       0.65
H       2.56       1.00       1.95
H      -0.03       0.88       1.92
H      -0.93       1.74       0.68
H      -2.51      -1.09      13.19
H       6.24      -1.64      10.79
H      -0.40       1.86       9.88
H      -0.26       2.27      12.37
H      -1.23       0.60       8.05
H       1.84       6.17       8.70
H       1.06       4.87       6.89
H       0.80       4.50       4.41
H       7.13      -0.09       3.54
H      -1.51       0.43       5.94
H      -0.90       4.50      17.22
H       4.60      -1.44      17.84
H       2.03      -1.46      17.80
H       6.41      -3.33      18.12
H      -1.43      -1.19      18.74
H      -0.05      -3.27      18.17
C       0.84      -0.33      16.46
C       2.07      -1.18      16.74
C       2.10      -2.46      15.88
C      -0.88       4.81      16.17
C      -0.87       3.54      15.33
C       4.62      -2.40      15.90
C       4.61      -1.15      16.77
C      -3.20      -0.26      16.58
C       3.33      -0.32      16.51
C       3.57       7.08       0.17
C       2.13       4.44      19.18
C      -2.96       7.17       0.25
C      -1.71       8.05       0.03
C      -0.47       7.20       0.32
C       2.51       1.26       0.88
C       1.21       2.04       0.59
C       1.18       3.30       1.43
C      -0.01       1.17       0.86
C      -2.06      -0.48      12.42
C       6.82      -0.76      11.07
C      -1.61       0.07      10.11
C      -0.88       1.18      10.58
C      -0.78       1.41      11.95
C      -1.74      -0.14       8.67
C       6.61      -1.14       8.08
C       2.18       6.72       6.64
C       1.48       5.59       6.18
C       1.31       5.37       4.82
C       6.75      -0.74       4.32
C       6.96      -0.47       5.67
N      -1.36       0.60      12.85
N       1.80       6.23       3.91
O       0.57      -0.12      15.22
O       0.19       0.11      17.44
O      -0.59       3.55      14.12
O      -1.20       2.43      15.96
O      -2.65      -0.29      15.41
O      -2.83       0.46      17.55
O       0.53       2.85      18.39
O       3.04       7.09       1.35
O      -2.50       3.19      18.53
O      -0.18       7.02       1.56
O       1.52       4.41       0.80
O       0.89       3.30       2.64
