186

Al       4.95       4.49      14.16
Al       1.75       4.60      14.10
Al       3.26       7.20      14.06
Al      -4.19      10.12       0.49
Al      -2.67       7.31       0.44
Al      -0.99       9.80       0.52
H       0.41       5.04      20.26
H       4.47       3.65      22.83
H      -3.21      10.81      22.45
H       0.28       4.84      10.45
H      -1.52       6.16       6.58
H      -1.89       6.26       4.12
H      -0.02       5.15       8.00
H       2.08       8.48       6.10
H       1.62       8.71       3.69
H       1.41       8.97      10.80
H       5.59       9.01      10.71
H       7.88       5.62       3.89
H       6.14       9.23       8.29
H       5.21       9.11       6.20
H       5.77       9.37       3.78
H       5.67       4.96       7.81
H       5.26       4.75      10.25
H       5.23       2.55      10.80
H       0.18       9.56      22.33
H      -3.31      10.42       7.01
H      -3.39       9.88       4.58
H       1.05       1.62       8.30
H       0.94       2.26      10.71
H       0.40       9.34      19.86
H       5.97       9.69      19.89
H       6.50       5.39      20.01
H       4.26       4.01      20.37
H       7.82       0.57       6.41
H       7.88       1.41       7.96
H       9.37       0.75       7.26
H       3.09      10.09       9.12
H       3.13       9.25       7.59
H       0.62       9.87       7.30
H       0.68      10.46       8.96
H       0.92       2.50      24.13
H      -0.85       2.52      24.03
H       0.08       1.46      22.97
H      -0.71       3.49      21.70
H       1.05       3.41      21.76
H       1.06       4.98      23.71
H      -0.67       5.05      23.70
H       6.17       3.30       1.20
H       6.27       4.67       2.31
H       7.65       3.58       2.13
H       6.46       3.01       4.26
H       6.23       1.69       3.11
H       4.02       2.75       2.42
H       4.24       3.94       3.71
H       7.90       3.94      24.97
H       8.22       2.85      23.60
H       9.56       3.69      24.41
H       8.97       4.83      22.21
H       8.71       5.89      23.60
H       6.28       5.17      23.63
H       6.57       4.27      22.13
H       6.67       3.03      13.51
H      11.49       0.88      27.72
C       3.07       3.19      16.10
C       0.24       8.58      21.87
C       0.35       8.45      20.49
C       0.41       7.17      19.91
C       0.18       7.43      22.69
C       0.02       7.57      24.09
C       0.56       7.03      18.51
C      -0.15       7.67      25.29
C       5.75       7.28      17.21
C       6.15       8.77      20.44
C       6.33       8.80      21.81
C       1.17       6.65      15.96
C       6.63       6.39      21.92
C       6.45       6.35      20.54
C       6.21       7.52      19.79
C       6.57       7.65      22.58
C       6.78       7.76      23.97
C       5.98       7.42      18.40
C       7.00       7.88      25.17
C       2.98       2.69      17.44
C       3.83       3.13      20.84
C       3.95       2.93      22.20
C       5.27       6.94      15.90
C       2.68       0.85      22.01
C       2.57       1.08      20.65
C       3.13       2.21      20.02
C       3.38       1.79      22.81
C       3.45       1.58      24.20
C       3.01       2.43      18.63
C       3.45       1.39      25.41
C       0.86       6.90      10.78
C       0.43       5.82       9.99
C       0.27       6.00       8.62
C       3.05       2.99      12.29
C       0.50       7.24       8.00
C       0.90       8.34       8.80
C       1.08       8.14      10.17
C      -0.81       6.69       5.94
C      -1.02       6.75       4.57
C       0.95       8.13       4.32
C       1.19       8.03       5.69
C       0.30       7.33       6.53
C      -0.16       7.50       3.75
C       5.42       6.86      10.63
C       1.22       6.68      12.20
C       5.63       8.13      10.07
C       5.92       8.24       8.71
C       5.95       7.11       7.88
C       5.69       5.85       8.44
C       5.45       5.73       9.80
C       6.99       6.28       5.73
C       7.29       6.39       4.39
C       6.10       8.49       4.34
C       5.80       8.35       5.69
C       6.25       7.24       6.44
C       5.10       6.64      12.07
C       6.85       7.51       3.68
C       3.08       2.45      10.90
C       4.31       2.36      10.25
C       4.34       2.05       8.90
C       3.18       1.77       8.16
C       1.96       1.82       8.85
C       1.90       2.17      10.20
C       2.58       0.25       6.28
C      -2.88      10.77       4.92
C       3.84       1.95       4.39
C       0.73       6.91      17.30
C       3.83       2.23       5.76
C       3.22       1.42       6.73
C       3.18       0.78       3.99
C       7.43       8.17      26.51
C      -0.57       7.93      26.64
C       3.35       0.89      26.75
C       7.30       7.74       2.28
C      -0.53       7.73       2.34
C       3.10       0.36       2.56
C       0.36       6.02      20.73
C       0.24       6.13      22.12
C       1.13       9.74       8.27
C       2.63      10.07       8.12
C       8.30       0.56       7.40
C       0.20       4.93      23.03
C       0.15       3.55      22.38
C       0.07       2.45      23.43
C       4.47       2.90       3.41
C       6.00       2.75       3.30
C       6.55       3.62       2.17
C       6.89       5.14      22.71
C       8.36       4.97      23.12
C       8.52       3.79      24.08
O       5.62       5.82      15.43
O       0.85       5.58      12.75
O       1.94       7.57      12.77
O       4.48       7.59      12.70
O       3.30       5.44      14.11
O       2.19       0.74      27.23
O       7.22       9.35      26.93
O       8.03       7.23      27.15
O      -1.38       7.09      27.18
O      -0.17       9.02      27.17
O       4.46       0.57      27.33
O       4.23       3.54      15.73
O       1.95       0.13       2.09
O       6.97       8.82       1.72
O       8.07       6.83       1.76
O      -1.38       6.94       1.79
O      -0.05       8.77       1.76
O       4.22       0.19       1.92
O      -2.60       9.07       0.47
O       1.98       3.30      15.43
O       0.80       5.54      15.43
O       1.95       7.51      15.43
O       4.46       7.78      15.35
O       5.42       5.52      12.56
O       4.15       3.18      12.88
O       1.89       3.30      12.77
O       6.48       3.64      14.23
O      11.74       0.28       0.52
F       1.89       0.19      19.89
F       7.52       5.20       6.39
F       5.55       2.01       8.28
F       4.39       3.41       6.17
F       6.28      10.00      22.44
