190

Zr      -7.70      10.05      14.24
Zr       7.75       1.03       1.46
Zr      11.29       1.01       1.43
Zr     -11.23      10.07      14.26
Zr       0.03      14.61       1.44
Zr       0.03      -3.53      14.25
H       2.81      15.04       1.12
H      -2.76      15.06       1.15
H       9.52       3.22       1.14
H      -9.47      11.08      12.28
H       4.12       6.93       1.78
H      -4.06       4.15      13.91
H       2.00      10.77       1.62
H       3.17       8.62       1.75
H      -2.01       0.27      14.02
H      -3.14       2.45      13.93
H       4.10      -0.65       7.12
H      -4.07      11.72       8.55
H       2.06      -2.04      10.74
H       3.18      -1.23       8.71
H      -1.95      13.15       5.00
H      -3.12      12.31       6.98
H       3.24       2.59      13.92
H      -3.21       8.49       1.79
H     -13.45       6.33      14.00
H       4.24       4.25      13.92
H      13.56       4.71       1.64
H      -4.18       6.82       1.77
H       3.26      12.24       7.09
H      -3.20      -1.17       8.59
H     -13.51      11.11      10.71
H       4.23      11.70       8.68
H      13.50       0.01       5.04
H      -4.19      -0.62       7.03
H       3.43       1.25       1.71
H     -15.52       9.89      13.93
H      -3.37       9.89      13.94
H      15.58       1.26       1.71
H      -7.29       5.03       7.11
H       7.34       6.06       8.57
H      -7.46       7.52      10.73
H      -7.33       6.14       8.71
H       7.51       3.48       5.01
H       7.38       4.93       7.00
H      -1.12       1.82       4.12
H      -2.49       2.15       3.05
H      -1.12       3.27       3.11
H       1.17       3.27       3.10
H       2.52       2.13       3.05
H       1.15       1.82       4.12
H      -1.11       9.25      11.57
H      -2.46       8.92      12.66
H      -1.09       7.81      12.59
H       1.18       7.81      12.59
H       2.55       8.92      12.65
H       1.18       9.24      11.57
C      -7.24       7.17      15.60
C       7.29      -1.23       3.71
C       7.21       3.86       0.02
C      -7.15      12.35      12.04
C       4.52      -5.53      15.66
C      -9.54       8.43      12.05
C      -4.46      -5.53      15.66
C       9.59       2.55       3.71
C       2.21      15.32       3.71
C       2.30      -1.69      15.61
C      -2.25      -4.19      12.06
C      -2.15      12.72       0.01
C       6.45       5.15       0.07
C      -6.46       5.89      15.57
C       5.49       5.49       1.05
C       4.84       6.73       1.00
C      -5.47       5.57      14.61
C      -4.80       4.34      14.68
C       2.76      10.52       0.88
C       3.42       9.30       0.94
C      -2.76       0.53      14.77
C      -3.40       1.76      14.73
C       5.12       7.68       0.01
C      -5.08       3.40      15.68
C       6.51      -1.62       4.92
C      -6.40      12.74      10.81
C       5.52      -0.83       5.55
C       4.85      -1.30       6.68
C      -5.44      11.93      10.16
C      -4.80      12.38       9.01
C       2.80      -2.66      10.24
C       3.44      -2.21       9.10
C      -2.71      13.77       5.48
C      -3.38      13.30       6.60
C       5.12      -2.56       7.24
C      -5.07      13.64       8.45
C       2.98      -0.36      15.58
C      -2.87      11.40       0.06
C       2.76       0.65      14.62
C       3.46       1.86      14.68
C      -2.67      10.41       1.04
C      -3.41       9.22       1.01
C     -13.30       5.57      14.76
C     -14.03       4.39      14.72
C      13.40       5.48       0.90
C      14.09       6.68       0.96
C       4.41       2.11      15.68
C      -4.36       8.97       0.01
C       2.92      14.84       4.93
C      -2.94      -3.72      10.82
C       2.72      13.58       5.54
C       3.45      13.22       6.67
C      -2.71      -2.48      10.19
C      -3.41      -2.14       9.03
C     -13.35      12.07      10.23
C     -14.05      12.41       9.08
C      13.35      -0.97       5.51
C      14.08      -1.33       6.63
C       4.41      14.07       7.24
C      -4.36      -2.99       8.45
C       2.84       0.73       0.97
C       1.43       0.73       1.01
C       0.70       1.44       2.04
C     -16.12      10.40      14.68
C     -17.52      10.37      14.66
C       0.74       9.64      13.65
C      -2.78      10.41      14.68
C      -1.38      10.37      14.66
C      -0.65       9.64      13.65
C      16.17       0.73       0.97
C      17.58       0.73       1.01
C      -0.68       1.44       2.04
C      -5.95      -5.54      15.66
C      -8.76      -5.56      15.68
C       6.01      -5.53      15.67
C       8.81      -5.56      15.68
C       9.64       3.43       4.93
C      -9.59       7.58      10.81
C      10.82       3.89       5.55
C      10.76       4.71       6.68
C     -10.77       7.15      10.17
C     -10.71       6.36       9.02
C      -8.37       7.19      10.24
C      -8.31       6.40       9.09
C       8.42       3.84       5.49
C       8.36       4.65       6.61
C       9.54       5.11       7.24
C      -9.49       5.96       8.45
C      -1.40       2.20       3.12
C       1.43       2.20       3.12
C      -1.37       8.87      12.57
C       1.46       8.87      12.57
Cl       5.01       4.46       2.36
Cl      -4.99       6.60      13.31
Cl       5.04       0.75       5.01
Cl      -4.96      10.35      10.69
Cl       1.63       0.53      13.31
Cl      -1.55      10.53       2.36
Cl       1.59      12.38       4.98
Cl      -1.58      -1.29      10.74
Cl      12.43       3.51       5.01
Cl     -12.37       7.53      10.71
O      -7.01       8.02      14.68
O       7.06      -0.07       3.22
O       6.97       3.01       0.93
O      -6.91      11.20      12.55
O      13.40       0.70       0.90
O     -10.65       8.79      12.56
O     -13.35      10.46      14.73
O      10.70       2.18       3.20
O       1.33      14.55       3.20
O       1.43      -1.92      14.70
O      -1.38      -3.41      12.58
O      -1.28      12.94       0.91
O      12.08       3.08       0.86
O     -12.03      11.30      12.51
O     -11.95       7.96      14.77
O      12.01      -0.18       3.25
O      -5.55      10.47      14.74
O       8.44       2.25       3.26
O       5.61       0.69       0.90
O      -8.38       8.76      12.48
O       1.47      -3.46      12.50
O       1.41      12.90       0.87
O      -1.35      14.58       3.25
O      -1.42      -1.86      14.77
O      -9.47      11.08      13.25
O       9.52       2.30       0.82
O      -1.96      15.50       0.82
O       2.02      15.49       0.81
O       9.52       0.00       1.80
O      -9.46       9.38      15.09
O      -1.44      -4.73      15.10
O       1.49      -4.73      15.09
