161

Zn       7.48      11.96       8.71
Zn      -1.61      -2.52       9.27
Zn      -2.28      -4.91      11.76
Zn      14.57      -3.14       7.07
H       6.01      10.28      13.24
H       1.24      -3.44       8.62
H      -7.74      10.43      11.63
H       9.57      13.43       4.92
H       0.79      -2.11       6.77
H       7.15      13.44       3.91
H       0.98      -5.00      12.64
H       3.09      -2.06       9.61
H       3.51      -5.41      12.28
H       5.73      -5.95      13.26
H      -3.41      -0.48      10.84
H       8.19      -5.73      13.15
H      10.17      -4.85      11.94
H       9.75      -1.48       9.28
H       7.53      -0.44       8.92
H       5.07      -0.69       9.00
H      -6.55       8.46      10.87
H       8.30       6.58      10.83
H       8.12       4.10      10.77
H       9.20       1.91      10.37
H      11.26       0.63       9.73
H      -2.11      -3.16      14.15
H      -3.60       2.50      10.02
H      -3.41       4.88      10.71
H      -4.50       7.08      11.04
H      -0.67      -2.53      15.86
H       0.78      -1.76      17.72
H       8.62       7.41       2.35
H       8.41       8.75       4.43
H       1.69      -0.23      13.08
H       2.65       2.31      18.69
H       3.10       0.58      14.95
H      11.65      -2.07       8.22
H       8.10      12.34       2.05
H      10.75      13.22       3.06
H      11.83      13.41       0.84
H       6.09       6.41      16.00
H       6.22       8.20      14.27
H      -4.68      15.37       4.84
H      -8.85       7.64      17.59
H      -3.61      15.52       2.60
H      -8.70       9.42      15.88
H       0.24      -0.78      11.39
H      12.44      -5.11      11.23
H      13.20       0.07       7.11
H      -8.67      11.23      14.43
H       8.31      10.06       6.36
H       4.87       7.77       8.28
H       5.65       6.36       9.02
H       4.29       7.17       9.84
H       6.48       7.81      10.92
H       5.71       9.22      10.20
H       7.13       9.03       8.17
H       7.90       7.57       8.80
C       7.00      10.70      13.39
C      13.93       0.26       9.23
C      -0.54      -1.78      13.26
C      11.47      -3.44      10.01
C       7.97      11.00       5.94
C       0.94      -3.84       9.58
C      -8.61      10.24      11.00
C      10.19      14.04       5.56
C      -0.10      -2.67       6.50
C       8.46       9.36       9.82
C       7.38      12.73       4.70
C      -3.81      -0.53       9.83
C       0.82      -4.66      11.62
C       7.87      11.41       4.60
C       1.72      -4.09      10.71
C       9.58       9.00      10.59
C      -7.23      14.49       5.34
C       3.72      -2.71      10.22
C       3.14      -3.79      10.90
C       3.95      -4.57      11.74
C       5.33      -4.35      11.84
C       5.92      -3.30      11.07
C      -1.66      -2.64      13.31
C       5.09      -2.44      10.29
C       6.19      -5.19      12.63
C       7.55      -5.06      12.57
C       8.17      -4.09      11.72
C       7.34      -3.17      11.02
C       7.93      -2.17      10.18
C       7.07      -1.24       9.51
C       5.71      -1.37       9.55
C       9.55      -4.09      11.46
C      10.12      -3.20      10.53
C      12.03      -2.87       8.84
C       9.31      -2.20       9.97
C      -7.16       7.56      10.88
C      10.17       7.68      10.79
C       9.39       6.51      10.81
C       9.98       5.23      10.77
C      11.41       5.13      10.76
C      -6.53       6.31      10.88
C       9.21       4.03      10.69
C       9.81       2.82      10.46
C      11.23       2.70      10.32
C      -0.47      -1.44      11.90
C      12.03       3.87      10.55
C      -5.28       3.78      10.48
C      -4.50       4.97      10.72
C      -5.10       6.18      10.90
C      11.87       1.51       9.93
C      13.26       1.45       9.78
C      -4.69       2.57      10.12
C       8.18      10.64       3.40
C       8.22      11.26       2.13
C       8.36      10.51       0.97
C      12.39      -4.44      10.37
C       8.45       9.11       1.04
C       8.52       8.49       2.30
C       8.40       9.25       3.46
C       0.97      -1.45      16.69
C       0.16      -1.86      15.65
C       2.02      -0.53      16.45
C       0.37      -1.40      14.33
C       1.47      -0.56      14.09
C       2.28      -0.11      15.13
C     -10.63       9.00      15.00
C      13.84      -0.26       7.93
C      -9.57       8.76      15.90
C      -9.64       7.76      16.85
C     -10.79       6.95      16.94
C       6.95       7.07      15.95
C       7.03       8.08      15.00
C      12.31      13.82       1.73
C      11.71      13.73       2.97
C      -5.21      14.53       1.58
C      -6.45      14.35       4.11
C      -5.17      14.93       3.98
C      -9.67      11.18      14.02
C      -4.56      15.01       2.73
C     -10.66      10.20      14.17
C       7.44       8.53       9.11
C       6.18       8.25       9.95
C       5.19       7.34       9.24
N       7.31      11.87      12.81
N      -0.35      -4.21       9.80
N      -9.36      11.26      10.55
N       9.72      14.49       6.74
N      -1.17      -2.67       7.32
N       8.36      10.71       9.82
N       7.22      13.09       5.98
N      -0.41      -4.72      11.07
N       2.57      -0.40      18.64
N       2.67       0.15      17.49
N       7.60       6.18      18.06
N      -3.34      -1.44       8.95
N      -4.68      15.00       0.36
N      -2.19      -2.81      12.07
N      13.16      -3.50       8.51
N      -1.44      -2.05      11.21
N       6.54      13.46       9.46
N      14.73      -1.26       7.76
N      -3.28      -5.75      13.22
N       7.58      12.01       6.75
