54

Mn      -2.56       0.63       9.71
Mn       2.14       0.50       7.75
Mn      -0.21      -1.13       8.84
Mn       4.91       6.96       3.44
Mn       0.21       7.09       5.40
Mn       2.56       8.73       4.31
H       2.33       3.86       7.27
H      -0.02      -3.22       6.17
H      -2.37      -0.63      12.85
H       0.02       3.73       5.88
H       2.37      10.81       6.98
H       4.72       8.23       0.30
C      -0.56       1.68       7.41
C       4.14      -2.01       7.99
C       1.79       0.33      10.90
C       2.91       5.91       5.74
C      -1.79       9.61       5.16
C       0.56       7.26       2.25
C      -1.51       2.75       7.03
C       3.20      -2.88       7.25
C       0.84       0.13      12.02
C       3.86       4.84       6.12
C      -0.85      10.47       5.90
C       1.51       7.46       1.13
C       4.18       2.78       7.44
C       1.83      -2.54       7.02
C      -0.53      -0.24      11.84
C      -1.83       4.81       5.71
C       0.52      10.13       6.13
C       2.88       7.84       1.31
C       3.38       3.83       6.97
C       1.03      -3.47       6.35
C      -1.33      -0.36      12.98
C      -1.03       3.76       6.18
C       1.32      11.06       6.80
C       3.68       7.95       0.17
O       0.63       1.69       6.97
O      -1.72      -2.41       8.20
O       2.98       0.71      11.13
O       1.72       5.90       6.18
O       4.07      10.00       4.95
O      -0.63       6.88       2.01
O      -0.98       0.74       8.20
O       3.72      -0.87       8.41
O       1.37       0.12       9.69
O       3.33       6.85       4.95
O      -1.37       8.46       4.74
O       0.98       7.47       3.45
O       3.61       1.87       8.26
O       1.26      -1.37       7.40
O      -1.09      -0.50      10.63
O      -1.26       5.72       4.89
O       1.09       8.96       5.75
O       3.44       8.09       2.51
