140

Al       1.78       4.60       6.29
Al       5.00      13.89      18.81
Al       5.13       4.55       6.25
Al       1.65      13.88      18.90
H       1.95      17.31      16.69
H       4.97       1.09       8.39
H       5.31      10.47      21.11
H       1.68       8.30       4.22
H       5.06      17.73      13.32
H       1.59       1.04      12.05
H       1.69      10.19      24.48
H       5.31       8.49       0.85
H       0.58      18.94       0.74
H       6.21      -0.67      24.55
H       3.97      11.62      11.74
H       2.81       7.08      13.20
H       2.36      21.13       0.87
H       4.51      18.52      24.41
H       5.69       9.39      11.61
H       1.09       9.31      13.33
H       3.62      -1.21      13.91
H       2.61      -0.92       9.66
H       0.36       8.00      24.33
H       6.49      10.85       3.36
H       4.51      13.69      14.69
H       3.27       1.70       9.89
H       1.15      14.16      23.02
H       0.66       6.27       3.52
H       3.41       3.03       5.52
H       3.33      15.65      18.99
H       0.08       6.18       6.90
H       6.66      12.17      19.16
C       3.51       6.02       8.18
C       3.29      12.48      16.92
C       0.09       3.14       4.34
C       6.65      15.33      20.80
C       3.44       6.33       4.57
C       3.35      12.22      20.61
C       0.11       2.92       8.01
C       6.72      15.54      17.12
C       1.25      18.41      14.99
C       5.59       0.11      10.21
C       4.62       9.48      22.87
C       2.40       9.29       2.46
C       1.15      17.41      15.96
C       5.70       1.06       9.20
C       4.51      10.40      21.84
C       2.47       8.33       3.48
C       6.79      16.52      15.99
C       6.74       1.98       9.17
C       3.43      11.28      21.76
C       3.49       7.39       3.53
C       5.80      16.61      15.00
C       0.95       2.00      10.22
C       2.43      11.24      22.75
C       4.54       7.46       2.58
C       5.85      17.64      14.07
C       0.87       1.04      11.23
C       2.48      10.25      23.74
C       4.50       8.43       1.58
C       0.20      18.56      14.05
C       6.57       0.06      11.24
C       3.57       9.35      23.82
C       3.43       9.34       1.48
C       0.13      19.60      13.10
C       6.59      -0.93      12.25
C       3.55       8.36      24.82
C       3.43      10.31       0.45
C       5.93      20.85       0.99
C       0.86      -2.59      24.29
C       2.55       9.73      11.50
C       4.23       8.96      13.44
C       0.35      19.96       0.42
C       6.44      -1.69      24.86
C       3.72      10.60      12.06
C       3.06       8.09      12.88
C       6.61      16.04      22.05
C       0.14       2.30       3.17
C       3.25      11.76      15.67
C       3.53       6.86       9.34
C       5.53      18.48      24.80
C       1.34      21.17       0.49
C       2.11       9.33      12.94
C       4.67       9.37      12.00
C       6.67      17.55      24.20
C       0.12       0.71       1.09
C       3.27      10.23      13.53
C       3.51       8.47      11.41
C       6.59      16.70      23.08
C       0.19       1.58       2.19
C       3.21      11.09      14.65
C       3.57       7.59      10.32
C       2.52      19.20      15.00
C       4.43      -0.82      10.24
C       5.91       8.72      22.97
C       1.19      10.14       2.36
C       4.72      15.58      14.85
C       2.01       3.07      10.35
C       1.35      12.27      22.86
C       5.66       6.46       2.64
I       4.64      20.29       2.58
I       2.15      -2.03      22.71
I       1.27      10.32       9.92
I       5.51       8.38      15.02
O       4.55       5.95       5.06
O       2.20      12.60      20.23
O       1.26       3.35       7.69
O       5.56      15.18      17.50
O       2.38       5.79       7.64
O       4.45      12.78      17.34
O       5.66       3.52       4.73
O       1.09      15.04      20.36
O       2.28       5.89       4.89
O       4.46      12.55      20.07
O       5.73       3.15       7.41
O       1.11      15.19      17.63
O       1.20       3.41       4.89
O       5.52      15.07      20.26
O       4.64       5.58       7.78
O       2.17      12.72      17.47
O       3.44       3.75       6.16
O       3.33      14.69      18.91
O       0.10       5.39       6.33
O       6.68      13.08      18.84
O       3.26      19.29      15.97
O       2.82      19.76      13.80
O       4.43      19.49      10.80
O       3.35      -0.28       9.56
O       6.60       8.41      22.01
O       6.23       8.48      24.26
O       0.73      10.58       1.31
O       0.59      10.36       3.56
O       3.52      15.83      14.78
O       5.24      14.34      14.71
O       1.75       4.21      10.67
O       3.28       2.64      10.19
O       0.15      12.03      22.88
O       1.88      13.50      23.02
O       5.62       5.35       2.13
O       6.71       6.96       3.32
