92

Al       0.14      18.48      10.67
Al       0.15       6.16       3.56
H       1.12      16.22       7.19
H       1.12       8.42       7.03
H       3.26      10.29       3.80
H       3.24      12.44       5.07
H       3.26      14.35      10.42
H       3.24      12.20       9.15
H       1.12      -2.02      10.45
H       1.12       2.02       3.77
H       3.26       3.88       7.01
H       3.24       1.71       8.24
H       3.26      -3.88       7.21
H       3.24      -1.71       5.99
H       1.12      -8.04      14.36
H       1.12      -4.28      21.20
H       3.26      -8.01      21.19
H       3.24      -7.99      18.70
H       3.26      -4.30      14.37
H       3.24      -4.33      16.86
H       1.26      13.32       5.05
H       0.90      14.98       5.16
H       1.26      11.32       9.17
H       0.90       9.66       9.06
H       1.26       1.29       9.01
H       0.90       0.36      10.39
H       1.26      -1.29       5.21
H       0.90      -0.36       3.83
H       1.26      -8.44      17.94
H       0.90      -9.17      16.45
H       1.26      -3.87      17.61
H       0.90      -3.14      19.11
C       2.17      -6.17      12.72
C       2.17      16.70       9.63
C       2.17      -4.37       9.65
C       2.17       7.93       4.60
C       2.17       4.37       4.57
C       2.17       6.17       1.50
C       2.17      15.41       8.88
C       2.18       9.23       5.34
C       1.60      15.33       7.62
C       1.60      14.13       6.89
C       1.60       9.30       6.61
C       1.60      10.50       7.33
C       2.76      10.36       4.77
C       2.75      11.55       5.48
C       2.76      14.28       9.46
C       2.75      13.08       8.74
C       2.17      12.97       7.47
C       2.17      11.67       6.75
C       2.17      -3.08       8.90
C       2.18       3.08       5.32
C       1.60      -1.95       9.47
C       1.60      -0.72       8.79
C       1.60       1.95       4.75
C       1.60       0.72       5.43
C       2.76       3.01       6.59
C       2.75       1.79       7.27
C       2.76      -3.01       7.63
C       2.75      -1.79       6.96
C       2.17      -0.64       7.50
C       2.17       0.64       6.73
C       2.17      -6.17      14.22
C       2.18       6.17       0.01
C       1.60      -7.23      14.91
C       1.60      -7.26      16.32
C       1.60      -5.09      20.64
C       1.60      -5.06      19.24
C       2.76      -7.21      20.65
C       2.75      -7.19      19.25
C       2.76      -5.11      14.91
C       2.75      -5.13      16.30
C       2.17      -6.17      17.04
C       2.17      -6.14      18.52
N       0.98      14.09       5.64
N       0.98      10.55       8.58
N       0.98       0.38       9.38
N       0.98      -0.38       4.84
N       0.98      -8.31      16.98
N       0.98      -4.00      18.58
O       1.22      -5.18       9.41
O       1.22      -5.56      12.14
O       1.22      16.90      10.45
O       3.12      -4.58      10.47
O       3.12      17.52       9.39
O       3.12      -6.78      12.13
O       1.22       5.56       2.08
O       1.22       7.73       3.77
O       1.22       5.18       4.81
O       3.13       6.78       2.09
O       3.13       4.58       3.75
O       3.13       7.12       4.83
