108

Cd      13.32       5.76      13.27
Cd      10.10       2.78       8.05
Cd       2.13       8.54       0.94
Cd       5.35      11.51       6.16
H       3.88       3.41      13.14
H      13.17      12.01       8.18
H      11.57      10.89       1.07
H       2.28       2.29       6.03
H       5.79      13.50      11.60
H       2.97      10.88       9.72
H       9.65       0.80       2.61
H      12.48       3.41       4.49
H      13.14       5.06      10.21
H      10.81       2.90      11.11
H       2.30       9.23       4.00
H       4.64      11.40       3.10
H       2.36       3.50       8.47
H      13.20      13.53      12.85
H      13.08      10.79       5.74
H       2.25       0.77       1.36
H       8.72      11.26       1.47
H       2.12       5.16       5.63
H       6.73       3.03      12.74
H      13.33       9.14       8.58
H       8.81       4.40      12.46
H      11.80       7.17       8.85
H       6.64       9.90       1.75
H       3.64       7.12       5.36
H       6.27      12.29      10.19
H       4.13      10.31      11.12
H       9.18       2.00       4.02
H      11.32       3.98       3.09
H       6.57      10.45       8.64
H       5.94       9.87      12.68
H       8.88       3.84       5.57
H       9.51       4.43       1.53
H       7.49      11.81       8.24
H       4.52       9.06      13.08
H       7.96       2.49       5.97
H      10.93       5.24       1.13
C      11.10       4.22      13.89
C      11.81       4.87       7.43
C       4.34      10.08       0.32
C       3.64       9.43       6.78
C       3.57       3.41      12.10
C      13.20      12.31       9.22
C      11.88      10.89       2.11
C       2.25       1.98       4.99
C       4.14       2.51      11.19
C      14.05      11.68      10.12
C      11.31      11.78       3.02
C       1.40       2.61       4.09
C      13.91       4.33      10.46
C      11.48       2.08      10.86
C       1.54       9.97       3.75
C       3.97      12.22       3.35
C       2.72       3.46       9.49
C      13.21      13.16      11.82
C      12.72      10.83       4.71
C       2.24       1.13       2.39
C       3.69       2.53       9.87
C      14.07      12.13      11.45
C      11.76      11.77       4.34
C       1.38       2.17       2.76
C       7.85      11.43       0.83
C       2.02       6.03       6.28
C       7.59       2.87      13.38
C      13.43       8.26       7.93
C       8.75       3.63      13.23
C      12.58       7.17       8.09
C       6.70      10.67       0.98
C       2.87       7.12       6.12
C       9.86       3.40      14.06
C      12.72       6.05       7.26
C       5.59      10.89       0.15
C       2.73       8.25       6.95
C       5.09      13.23       8.82
C       3.28      11.56      12.49
C      10.36       1.06       5.39
C      12.17       2.73       1.72
I      13.76       8.12      11.88
I       7.71       2.52       9.44
I       1.69       6.17       2.33
I       7.74      11.77       4.77
N       2.63       4.29      11.74
N      12.39      13.33       9.57
N      12.82      10.00       2.47
N       3.06       0.97       4.64
N       5.83      12.19       9.28
N       4.27      10.74      12.04
N       9.61       2.11       4.93
N      11.18       3.56       2.17
N       6.54      11.42       8.33
N       4.98       9.98      12.99
N       8.91       2.87       5.88
N      10.47       4.32       1.22
O      11.17       5.00      12.87
O      11.02       4.86       8.44
O       4.27       9.29       1.34
O       4.43       9.44       5.77
O       9.21       1.47       0.52
O      11.85       3.91       6.59
O       6.23      12.83      13.69
O       3.60      10.39       7.62
O       3.88       1.72       7.63
O      14.86      11.88      13.69
O      11.57      12.57       6.58
O       0.59       2.42       0.52
