56

Al       9.73       5.00       8.71
Al       6.43       4.96       8.70
H       4.75       3.44       7.84
H       8.02       6.57       9.43
H       9.33       5.38      12.71
H       9.28       5.34      15.21
H       6.92       4.40      12.78
H       5.98       5.72       4.63
H       3.56       4.70       4.72
H       3.64       4.82       2.21
H       6.40       2.08      10.65
H       9.66       7.70      10.50
C       8.17       2.60       8.86
C       8.02       5.09       6.30
C       4.73       7.38       8.60
C       4.85       4.92      11.11
C       4.82       4.89      12.60
C      10.23       5.16      13.28
C      10.20       5.15      14.67
C       4.76       4.86      15.41
C       5.94       4.59      14.69
C       5.99       4.61      13.31
C       4.75       4.83      16.82
C       8.18       5.38       0.60
C       8.16       5.33       2.01
C       6.98       5.59       2.73
C       6.91       5.52       4.11
C       8.08       5.19       4.82
C       2.67       4.95       4.14
C       2.72       5.01       2.75
C       8.19       1.10       8.83
C       7.32       0.35       9.68
C       2.43       0.44       7.94
C       6.44       0.99      10.59
C       5.59       0.25      11.39
C       4.74       8.88       8.69
C       5.57       9.62       7.87
C      10.47       9.52       9.61
C       9.62       8.79      10.49
C       8.75       9.43      11.34
Cl       6.57       8.84       6.70
Cl       3.43       1.33       6.85
Cl       4.50       1.07      12.45
Cl       7.70       8.49      12.33
O       9.25       3.19       9.14
O       6.89       5.27       6.86
O       5.81       6.78       8.86
O       3.77       5.25      10.51
O       3.62       6.83       8.32
O       5.96       4.63      10.54
O       7.06       3.15       8.58
O       9.11       4.80       6.91
O       4.77       4.36       8.14
O       8.08       5.61       9.28
F       7.07       4.31      15.39
F       5.86       5.90       2.03
