188

Mn       4.66       8.08      19.62
Mn       4.86       0.00       9.81
Mn      -0.40      16.16       9.81
Mn       9.51       8.08       0.00
H       7.59      15.01      13.83
H       7.01      13.57      15.78
H       4.90      10.89      13.13
H       5.40      12.41      11.23
H       5.18      11.13      19.12
H       5.59      12.75      17.27
H       5.64       9.37      14.56
H       5.13       7.92      16.52
H       3.75       6.08      15.98
H       3.20       4.64      14.03
H       9.15       3.61      15.88
H      -0.01       5.12      17.79
H       2.53       1.06      11.43
H       3.06       2.50      13.38
H       8.56       3.43      13.65
H       8.21       1.91      11.70
H       1.52       9.23       4.02
H       2.10      10.66       5.96
H       4.21      13.35       3.32
H       3.72      11.83       1.42
H       3.94      13.11       9.31
H       3.53      11.49       7.46
H       3.48      14.86       4.75
H       4.39       0.16       6.71
H       5.76       1.99       6.17
H       6.31       3.43       4.22
H       0.36       4.47       6.07
H       9.52       2.96       7.98
H       6.99       7.01       1.61
H       6.45       5.58       3.57
H       0.95       4.65       3.84
H       1.31       6.17       1.88
H       1.72       1.15       5.79
H       2.30       2.59       3.85
H       4.41       5.27       6.49
H       3.92       3.75       8.39
H       4.14       5.03       0.50
H       3.73       3.41       2.35
H       3.68       6.78       5.06
H       4.19       8.23       3.10
H       5.57      10.07       3.64
H       6.11      11.51       5.59
H       0.16      12.54       3.74
H       9.33      11.04       1.83
H       6.79      15.09       8.20
H       6.25      13.66       6.24
H       0.75      12.73       5.97
H       1.11      14.25       7.93
H       7.79       6.93      15.60
H       7.21       5.49      13.66
H       5.10       2.81      16.30
H       5.59       4.33      18.21
H       5.38       3.05      10.31
H       5.79       4.67      12.17
H       5.84       1.30      14.87
H       4.93      16.00      12.91
H       3.55      14.16      13.45
H       3.00      12.72      15.40
H       8.95      11.69      13.55
H      -0.21      13.20      11.64
H       2.33       9.14      18.01
H       2.86      10.58      16.06
H       8.37      11.51      15.79
H       8.01       9.99      17.74
C       6.87      14.67      11.23
C       6.52      13.80      12.41
C       6.97      14.12      13.70
C       6.65      13.31      14.78
C       5.93      12.11      14.60
C       5.50      11.79      13.30
C       5.77      12.63      12.23
C       5.28      10.79      18.09
C       5.52      11.68      17.05
C       5.65      11.21      15.73
C       5.52       9.82      15.55
C       5.26       9.00      16.64
C       2.26       6.52      18.21
C       1.91       5.68      17.01
C       2.80       5.55      15.94
C       2.50       4.73      14.86
C       1.29       4.01      14.82
C       0.38       4.16      15.89
C       0.69       4.99      16.97
C       1.74       1.59      11.96
C       2.03       2.42      13.04
C       1.00       3.11      13.69
C       9.41       2.91      13.20
C       9.20       2.07      12.11
C       2.24       9.57       1.42
C       2.59      10.44       2.60
C       2.14      10.12       3.89
C       2.46      10.93       4.97
C       3.19      12.13       4.79
C       3.62      12.45       3.49
C       3.35      11.61       2.42
C       3.84      13.45       8.28
C       3.60      12.56       7.24
C       3.47      13.03       5.92
C       3.60      14.42       5.74
C       3.86      15.24       6.83
C       7.25       1.56       8.39
C       7.61       2.40       7.20
C       6.71       2.53       6.13
C       7.02       3.35       5.05
C       8.23       4.07       5.01
C       9.13       3.92       6.08
C       8.83       3.09       7.15
C       7.78       6.49       2.15
C       7.48       5.66       3.23
C       8.51       4.97       3.88
C       0.10       5.17       3.39
C       0.31       6.01       2.30
C       2.44       1.49       8.39
C       2.79       2.36       7.21
C       2.34       2.04       5.92
C       2.66       2.85       4.84
C       3.39       4.05       5.03
C       3.82       4.37       6.33
C       3.55       3.53       7.40
C       4.04       5.37       1.53
C       3.80       4.48       2.57
C       3.66       4.95       3.89
C       3.80       6.34       4.08
C       4.06       7.16       2.99
C       7.05       9.64       1.42
C       7.41      10.48       2.61
C       6.51      10.61       3.68
C       6.82      11.43       4.76
C       8.03      12.15       4.80
C       8.93      12.00       3.74
C       8.63      11.17       2.66
C       7.58      14.57       7.67
C       7.28      13.74       6.59
C       8.31      13.05       5.94
C      -0.10      13.25       6.42
C       0.11      14.09       7.51
C       7.07       6.59      18.20
C       6.72       5.72      17.02
C       7.17       6.04      15.74
C       6.85       5.23      14.65
C       6.13       4.03      14.84
C       5.70       3.71      16.14
C       5.97       4.55      17.21
C       5.48       2.71      11.35
C       5.72       3.60      12.38
C       5.85       3.13      13.70
C       5.72       1.74      13.89
C       5.46       0.92      12.80
C       2.07      14.60      11.23
C       1.71      13.76      12.42
C       2.60      13.63      13.49
C       2.30      12.81      14.57
C       1.09      12.09      14.61
C       0.18      12.24      13.55
C       0.49      13.07      12.47
C       1.54       9.67      17.48
C       1.83      10.50      16.40
C       0.80      11.19      15.75
C       9.21      10.99      16.24
C       9.00      10.15      17.32
N       5.14       9.47      17.89
N       0.49       1.42      11.49
N       3.97      14.77       8.08
N       9.02       6.66       1.68
N       4.17       6.69       1.73
N       8.83      14.74       8.14
N       5.34       1.39      11.54
N       0.29       9.50      17.95
O       8.01      15.23      11.27
O       6.02      14.75      10.29
O       3.46       6.97      18.24
O       1.39       6.71      19.10
O       1.11       9.01       1.46
O       3.10       9.49       0.48
O       6.05       1.11       8.43
O       8.13       1.37       9.29
O       1.31       0.93       8.35
O       3.30       1.41       9.33
O       5.85       9.19       1.38
O       7.93       9.45       0.52
O       8.21       7.15      18.16
O       6.21       6.67      19.14
O       3.26      15.05      11.20
O       1.19      14.79      10.33
