92

Al       1.62       9.71      14.29
Al       5.08       3.24       4.78
Al       4.97       9.72      14.32
Al       1.73       3.23       4.75
H       1.98       5.75       1.45
H       4.72       7.20      17.63
H       5.33       0.73       8.09
H       1.37      12.23      10.98
H       3.70       8.98       2.04
H       2.99       3.98      17.03
H       0.35      15.37       7.50
H       6.34      -2.41      11.58
H       3.67      10.88       0.46
H       3.03       2.08      18.62
H       0.32      13.47       9.08
H       6.38      -0.52       9.99
H       4.80       6.91       2.90
H       1.90       6.05      16.17
H       1.45      -0.43       6.64
H       5.25      13.39      12.43
H       3.30       8.01      13.90
H       3.40       4.95       5.17
H       6.65      11.43      14.70
H       0.05       1.53       4.37
C       3.29      11.07      16.31
C       3.41       1.88       2.76
C       6.63       8.36      12.29
C       0.06       4.59       6.78
C       3.29      11.57      12.76
C       3.41       1.38       6.32
C       6.64       7.86      15.85
C       0.06       5.10       3.22
C       1.13       6.43       1.40
C       5.57       6.52      17.68
C       4.48       0.05       8.14
C       2.22      12.91      10.93
C       0.04       6.23       2.25
C       6.66       6.73      16.82
C       3.39       0.25       7.28
C       3.31      12.71      11.79
C       5.64       7.09       2.23
C       1.06       5.86      16.85
C       2.29      -0.61       7.31
C       4.41      13.57      11.76
C       5.62       8.20       1.36
C       1.08       4.76      17.71
C       2.27      -1.72       8.17
C       4.43      14.68      10.90
C       0.01       8.39       0.46
C       6.69       4.57      18.62
C       3.36      -1.91       9.08
C       3.34      14.87       9.99
C       1.12       7.48       0.47
C       5.58       5.47      18.61
C       4.47      -1.01       9.07
C       2.23      13.96      10.00
C       4.53       9.14       1.35
C       2.17       3.82      17.72
C       1.18      15.21       8.19
C       5.51      -2.26      10.88
C       4.52      10.18       0.47
C       2.18       2.77      18.60
C       1.17      14.16       9.06
C       5.53      -1.21      10.01
C       0.06       5.40       7.98
C       6.63       7.56      11.10
C       3.41       1.08       1.56
C       3.28      11.88      17.51
C       0.02       6.10       8.98
C       6.68       6.86      10.09
C       3.37       0.38       0.56
C       3.33      12.57      18.52
O       4.42      11.16      13.18
O       2.28       1.79       5.89
O       1.07       8.27      15.43
O       5.63       4.69       3.65
O       2.15      10.77      15.82
O       4.55       2.19       3.25
O       5.50       8.66      12.78
O       1.20       4.29       6.29
O       2.15      11.12      13.10
O       4.54       1.84       5.97
O       5.50       8.32      15.51
O       1.20       4.64       3.56
O       1.08       8.68      12.75
O       5.62       4.28       6.32
O       4.43      10.76      15.86
O       2.27       2.20       3.21
O       3.30       8.93      14.20
O       3.40       4.03       4.87
O       6.65      10.51      14.41
O       0.05       2.45       4.66
