180

Zn       2.58       1.65      18.52
Zn       7.49      11.23       7.34
Zn       2.86       2.00      21.35
Zn       7.22      10.88      10.17
H      -1.51      12.57      16.44
H      11.58       0.31       5.26
H      -1.57      12.44      13.94
H      11.64       0.44       2.76
H       3.34       3.45      13.83
H       6.73       9.43       2.65
H       3.31       3.43      16.35
H       6.76       9.45       5.17
H       5.87       1.49      10.09
H       4.21      11.39      21.27
H       5.93       1.63       7.57
H       4.15      11.25      18.75
H      12.29       1.80       7.44
H      -2.22      11.08      18.62
H      12.25       1.67       9.94
H      -2.17      11.21      21.12
H       3.21       3.98       3.74
H       6.87       8.90      14.92
H       3.33       3.98       1.22
H       6.75       8.90      12.40
H      -0.82      12.88       1.02
H      10.89       0.00      12.20
H      -0.99      12.71       3.52
H      11.06       0.18      14.70
H       1.79       5.72      17.44
H       8.28       7.16       6.26
H       1.15       8.11      17.14
H       8.93       4.77       5.96
H       2.00       6.25      21.69
H       8.07       6.63      10.51
H       0.59      10.33      18.15
H       9.48       2.55       6.97
H       0.80      10.86       0.04
H       9.27       2.03      11.22
H       1.50       8.48       0.33
H       8.57       4.40      11.51
H      11.46       1.63      18.20
H      -1.39      11.25       7.02
H       9.36       1.98       0.36
H       0.71      10.90      11.54
H      11.85       1.79       0.11
H      -1.77      11.09      11.29
H       9.20       1.77      17.15
H       0.88      11.11       5.97
H       6.72       1.93      17.40
H       3.36      10.95       6.21
H       7.10       2.09      21.67
H       2.97      10.79      10.49
C       1.93       0.50      15.82
C       8.14      12.38       4.64
C       1.90       0.43      14.43
C       8.18      12.45       3.25
C       2.42       1.49      13.71
C       7.65      11.39       2.53
C       2.94       2.60      14.38
C       7.14      10.28       3.20
C       2.93       2.60      15.76
C       7.15      10.28       4.58
C       1.19       1.51      11.60
C       8.88      11.37       0.42
C       1.26       1.61      10.13
C       8.82      11.27      21.31
C       2.51       1.62       9.47
C       7.57      11.26      20.65
C       3.73       1.54      10.18
C       6.35      11.34      21.36
C       3.72       1.46      11.65
C       6.36      11.42       0.47
C       4.95       1.55       9.51
C       5.13      11.33      20.69
C       4.98       1.63       8.11
C       5.09      11.25      19.29
C       3.79       1.71       7.38
C       6.28      11.17      18.56
C       2.54       1.70       8.04
C       7.53      11.18      19.22
C       1.32       1.77       7.33
C       8.76      11.12      18.51
C       0.10       1.76       8.00
C       9.97      11.12      19.18
C       0.07       1.69       9.40
C      10.00      11.19      20.59
C       1.33       1.82       5.85
C       8.75      11.06      17.03
C       3.85       1.78       5.91
C       6.22      11.10      17.09
C       2.64       1.89       3.81
C       7.43      10.99      14.99
C       2.99       3.08       3.17
C       7.08       9.80      14.35
C       3.06       3.08       1.78
C       7.01       9.80      12.96
C       2.44       0.85       1.67
C       7.63      12.03      12.85
C       2.35       0.76       3.05
C       7.72      12.12      14.23
C       2.28       4.41      19.76
C       7.79       8.48       8.58
C       1.94       5.86      19.59
C       8.14       7.02       8.41
C       1.70       6.39      18.29
C       8.38       6.50       7.11
C       1.34       7.70      18.13
C       8.74       5.18       6.95
C       1.20       8.56      19.26
C       8.88       4.32       8.08
C       1.45       8.03      20.57
C       8.63       4.85       9.39
C       1.82       6.67      20.70
C       8.25       6.21       9.52
C       0.79       9.91      19.13
C       9.28       2.97       7.95
C       0.65      10.72      20.25
C       9.43       2.17       9.07
C       0.92      10.19      21.54
C       9.16       2.69      10.36
C       1.30       8.88      21.70
C       8.77       4.00      10.52
C       0.21      12.14      20.09
C       9.87       0.74       8.91
C       0.14       1.58      20.17
C       9.93      11.30       8.99
C      11.78       1.68      20.31
C      -1.70      11.20       9.13
C      10.98       1.70      19.18
C      -0.91      11.18       8.00
C       9.58       1.82      19.28
C       0.50      11.06       8.10
C       8.98       1.92      20.59
C       1.09      10.96       9.41
C       9.82       1.90      21.73
C       0.25      10.98      10.55
C      11.19       1.79      21.60
C      -1.11      11.09      10.42
C       8.74       1.84      18.14
C       1.34      11.04       6.96
C       7.37       1.94      18.27
C       2.70      10.95       7.08
C       6.78       2.03      19.55
C       3.29      10.85       8.37
C       7.58       2.02      20.69
C       2.50      10.86       9.51
C       5.29       2.09      19.69
C       4.78      10.79       8.51
N       2.44       1.56      16.47
N       7.63      11.32       5.29
N       2.44       1.48      12.27
N       7.64      11.40       1.09
N       2.60       1.83       5.24
N       7.48      11.05      16.42
N       2.81       1.99       1.05
N       7.26      10.90      12.23
O       0.14       1.49      12.24
O       9.93      11.39       1.06
O       4.73       1.39      12.34
O       5.34      11.50       1.16
O       0.31       1.86       5.16
O       9.77      11.02      16.34
O       4.89       1.80       5.26
O       5.18      11.09      16.44
O       4.83       2.26      20.87
O       5.25      10.62       9.69
O       4.61       1.95      18.63
O       5.46      10.93       7.45
O       0.60       1.43      18.99
O       9.47      11.46       7.81
O       0.83       1.66      21.24
O       9.25      11.22      10.06
O       0.16      12.84      21.16
O       9.91       0.04       9.98
O      -0.09      12.54      18.92
O      10.17       0.34       7.74
O       2.49       3.98      20.94
O       7.58       8.90       9.76
O       2.32       3.70      18.70
O       7.76       9.18       7.52
