64

Zn       7.63       9.93       8.67
Zn       7.62       7.10       8.51
H       6.42      10.07      12.80
H       8.83       6.96       4.39
H       6.49      10.25      15.30
H       8.77       6.78       1.89
H       8.92      12.10       7.16
H       6.33       4.93      10.02
H       8.98      14.63       7.17
H       6.27       2.40      10.01
H       9.03       2.51       6.69
H       6.22      14.52      10.49
H       8.96       5.04       6.83
H       6.29      11.99      10.35
H       6.28      10.29       1.76
H       8.98       6.74      15.43
C       7.67       8.68       5.99
C       7.59       8.35      11.20
C       6.85       9.57       2.34
C       8.41       7.46      14.84
C       6.91       9.67       3.73
C       8.34       7.36      13.45
C       6.90       4.34       9.30
C       8.35      12.69       7.88
C       6.87       2.96       9.29
C       8.38      14.07       7.89
C       7.64       2.28       8.34
C       7.61      14.75       8.85
C       8.42       3.02       7.43
C       6.83      14.01       9.75
C       8.39       4.41       7.51
C       6.87      12.62       9.68
C      10.24       8.52       8.62
C       5.01       8.51       8.56
C      11.69       8.51       8.62
C       3.56       8.51       8.57
C      12.92       8.51       8.61
C       2.33       8.51       8.58
C      14.26       8.51       8.60
C       0.99       8.51       8.59
C       7.61       8.71       4.49
C       7.64       8.31      12.70
C       8.29       7.69       3.79
C       6.97       9.34      13.39
C       8.25       7.58       2.41
C       7.01       9.45      14.77
C       7.49       8.52       1.68
C       7.76       8.51      15.50
N       7.32       8.48       0.28
N       7.94       8.54      16.91
N       7.64       5.05       8.42
N       7.61      11.97       8.76
N       7.72       0.87       8.20
N       7.53      16.16       8.98
Cl       6.02      10.97       4.47
Cl       9.23       6.06      12.72
O       7.70       9.78       6.62
O       7.55       7.25      10.57
O       7.67       7.51       6.50
O       7.58       9.51      10.68
O       9.69       9.66       8.69
O       5.57       7.37       8.49
O       9.68       7.38       8.56
O       5.57       9.65       8.62
