72

Ni      -2.35       0.66       9.44
Ni      -0.10      -1.05       8.77
Ni       2.14       0.39       7.62
Ni       4.59       6.79       3.47
Ni       2.35       8.51       4.15
Ni       0.10       7.07       5.29
H       4.58       8.19       0.27
H       2.34      10.58       6.95
H       0.10       3.60       5.69
H      -2.34      -0.73      12.64
H      -0.10      -3.12       5.96
H       2.15       3.85       7.23
C       1.79       0.33      10.66
C       4.03      -1.94       7.87
C      -0.46       1.61       7.30
C       0.46       7.12       2.26
C      -1.78       9.39       5.04
C       2.70       5.85       5.61
C       0.84       0.13      11.78
C       3.08      -2.81       7.14
C      -1.41       2.68       6.91
C       1.41       7.32       1.14
C      -0.84      10.26       5.78
C       3.65       4.78       6.00
C      -0.52      -0.30      11.61
C       1.72      -2.45       6.85
C       3.97       2.74       7.37
C       2.77       7.75       1.31
C       0.52       9.90       6.06
C      -1.72       4.71       5.54
C       3.55       7.86       0.15
C       1.31      10.85       6.73
C      -0.93       3.65       6.03
C      -1.31      -0.41      12.76
C       0.93      -3.39       6.18
C       3.18       3.80       6.89
C       4.00       4.59       1.27
C       1.76      11.51       3.34
C      -0.49       6.26       8.30
C      -1.75       2.86      11.64
C       0.49      -4.06       9.57
C       2.73       1.19       4.61
O       2.98       0.71      10.88
O      -1.51      -2.32       8.09
O       0.74       1.61       6.86
O      -0.73       6.74       2.03
O       3.75       9.78       4.83
O       1.51       5.84       6.05
O       1.35       0.12       9.46
O       3.60      -0.79       8.29
O      -0.89       0.67       8.08
O       0.89       7.33       3.46
O      -1.35       8.25       4.62
O       3.13       6.78       4.83
O      -1.10      -0.62      10.44
O       1.14      -1.28       7.16
O       3.38       1.89       8.23
O       3.35       8.07       2.48
O       1.11       8.73       5.75
O      -1.14       5.56       4.69
O       3.67       4.91       2.36
O       1.43      10.41       3.07
O      -0.81       7.05       7.48
O      -1.43       2.55      10.55
O       0.81      -2.96       9.84
O       3.06       0.41       5.43
O       4.31       4.25       0.19
O       2.06      12.61       3.59
O      -0.18       5.50       9.13
O      -2.06       3.20      12.72
O       0.18      -5.16       9.32
O       2.42       1.96       3.78
