134

Zn      22.41      11.85       0.00
Zn       0.00      -0.00       1.30
Zn      11.85      11.85      17.96
Zn       0.00      10.56      19.26
Zn     -10.56      -0.00      19.26
Zn      11.85       1.29       0.00
H      12.96      -1.84      12.54
H       1.84      12.96      12.54
H      10.75       1.84      12.54
H      -1.84      10.75      12.54
H       1.11      13.69       6.72
H      13.69      -1.11       6.72
H      -1.11      10.01       6.72
H      10.01       1.11       6.72
H      13.49      -2.96      14.51
H      -9.70      -1.86      15.81
H      12.45      -2.68      15.93
H       2.96      13.49      14.51
H       1.86      -9.70      15.81
H       2.69      12.45      15.93
H      10.22       2.96      14.51
H       9.70       1.86      15.81
H      11.25       2.68      15.93
H      -2.96      10.21      14.51
H      -1.86       9.70      15.81
H      -2.68      11.25      15.93
H       1.64      14.81       4.75
H       2.16      13.71       3.44
H       0.60      14.54       3.33
H      14.82      -1.64       4.75
H      13.71      21.55       3.45
H      14.54      -0.60       3.33
H      -1.64       8.89       4.75
H      21.55       9.99       3.45
H      -0.60       9.17       3.33
H       8.89       1.64       4.75
H       9.99       2.15       3.45
H       9.17       0.60       3.33
C      11.85      -2.60      19.26
C       0.00      11.85      15.18
C      -1.04      11.23      13.10
C       0.63      12.89       6.16
C      12.89      -0.63       6.16
C      -0.63      10.81       6.16
C      10.81       0.63       6.16
C      11.85      -0.00      12.39
C       0.00      11.85      12.39
C       0.00      11.85       6.86
C      11.85      -0.00       6.86
C       0.00      11.85       4.08
C      13.15      -2.20      15.22
C       2.20      13.14      15.22
C      10.56       2.20      15.22
C      -2.20      10.56      15.22
C       1.29      14.05       4.04
C      14.05      -1.29       4.04
C      -1.29       9.65       4.04
C      11.85      -0.00       4.08
C       9.65       1.29       4.04
C      11.85      -0.00      15.18
C      11.85      -0.00       8.33
C       0.00      11.85       8.33
C       0.00      11.85      10.92
C       2.60     -11.85      19.26
C      11.85      -0.00      10.92
C      -9.27      11.85      19.26
C       0.00       2.58       0.00
C      21.12      -0.00       0.00
C      11.85       9.27      19.26
C       0.00      14.46       0.00
C      11.85      -0.00      16.68
C       0.00      11.85      16.68
C       0.00      11.85       2.58
C      11.85       0.00       2.58
C       9.25      -0.00       0.00
C      11.85      -4.04      19.26
C       4.04      11.85      19.26
C       0.00      15.89       0.00
C       7.81      -0.00       0.00
C     -11.85      -5.26      19.26
C       5.27      11.85      19.26
C      23.70      17.12       0.00
C       6.59       0.00       0.00
C       0.00       5.24       0.00
C      18.46      23.70       0.00
C      11.85       6.61      19.26
C      -6.61     -11.85      19.26
C       0.00       4.02       0.00
C      19.68       0.00       0.00
C      11.85       7.83      19.26
C      -7.83      11.85      19.26
C      12.49      -1.06      14.49
C       1.06      12.49      14.49
C      11.22       1.06      14.49
C      -1.06      11.21      14.49
C       0.64      12.91       4.76
C      12.91      -0.64       4.76
C      -0.64      10.79       4.76
C      10.80       0.64       4.76
C      12.48      -1.04      13.10
C       1.04      12.48      13.10
C      11.23       1.04      13.10
N      11.00       0.84      10.29
N      -0.84      11.00      10.29
N      12.70      -0.84      10.29
N       0.84      12.70      10.29
N      -0.85      11.01       8.97
N      11.01       0.85       8.97
N       0.85      12.69       8.97
N      12.70      -0.85       8.97
O      22.56       9.81       0.02
O      13.89      22.56       0.02
O       1.15      13.89       0.02
O       9.81       1.15       0.02
O      10.71       2.04      19.24
O       2.04     -10.71      19.24
O     -10.71      -2.04      19.24
O      -2.04      10.71      19.24
O      10.72      -0.02      17.26
O       0.02      10.71      17.26
O      12.99       0.02      17.26
O      -0.02      12.99      17.26
O      -1.14      11.87       2.00
O      11.87       1.14       2.00
O       1.14      11.83       1.99
O      11.83      -1.14       2.00
O      -9.83      11.86      18.11
O      11.84      -9.84      18.11
O       9.84      11.84      18.11
O      11.86       9.83      18.11
O       2.02      -0.01       1.14
O      -0.01      21.69       1.14
O      21.69       0.01       1.15
O       0.01       2.02       1.15
