128

Al       3.94      28.68      24.84
Al       3.94      14.34      16.56
H       1.78      16.14      10.26
H       2.17      11.86      10.49
H       2.17      16.83       6.07
H       1.78      12.55       6.30
H       2.01      12.81       8.38
H       2.01      15.88       8.18
H       1.78      18.90      21.27
H       2.17      20.84      17.45
H       2.17      22.18      23.96
H       1.78      24.12      20.13
H       2.01      22.20      19.32
H       2.01      20.83      22.08
H       1.78      36.67      18.15
H       2.17      39.01      21.75
H       2.17      32.70      19.65
H       1.78      35.04      23.25
H       2.01      36.71      21.98
H       2.01      35.00      19.42
H       1.14      11.28      13.49
H       2.75      11.73      14.08
H       2.58      10.81      12.56
H       2.78      17.04      13.18
H       1.17      16.66      13.78
H       1.37      17.41      12.17
H       2.78      11.65       3.38
H       1.17      12.03       2.78
H       1.37      11.28       4.39
H       1.14      17.40       3.07
H       2.75      16.95       2.48
H       2.58      17.88       4.00
H       1.14      18.53      15.44
H       2.75      17.80      15.54
H       2.58      19.57      15.50
H       2.78      15.92      20.59
H       1.17      15.59      19.96
H       1.37      16.61      21.41
H       2.78      27.11      20.82
H       1.17      27.43      21.44
H       1.37      26.42      19.99
H       1.14      10.15       1.12
H       2.75      10.88       1.02
H       2.58       9.11       1.06
H       1.14      13.21      20.75
H       2.75      13.50      20.06
H       2.58      12.65      21.62
H       2.78      10.07      15.91
H       1.17      10.77      15.95
H       1.37      37.69      16.10
H       2.78      18.62       0.65
H       1.17      17.91       0.61
H       1.37      19.67       0.46
H       1.14      29.81      20.65
H       2.75      29.53      21.34
H       2.58      30.38      19.78
C       1.97      30.42      23.71
C       1.97      14.46       2.07
C       1.97      26.83      23.90
C       1.97      14.23      14.49
C       1.97      16.19      17.50
C       1.97      12.60      17.69
C       1.97      14.14      13.00
C       1.89      15.33      12.23
C       1.88      15.22      10.84
C       1.99      13.99      10.18
C       2.08      12.83      10.98
C       2.06      12.88      12.37
C       1.99      13.84       8.73
C       1.99      14.84       7.83
C       2.08      15.85       5.58
C       1.99      14.70       6.38
C       1.88      13.46       5.72
C       1.89      13.36       4.33
C       1.97      14.54       3.56
C       2.06      15.80       4.19
C       1.97      17.53      18.17
C       1.89      17.60      19.58
C       1.88      18.86      20.18
C       1.99      20.04      19.44
C       2.08      19.93      18.04
C       2.06      18.70      17.39
C       1.99      21.37      20.04
C       1.99      21.66      21.36
C       2.08      23.09      23.36
C       1.99      22.98      21.96
C       1.88      24.17      21.22
C       1.89      25.42      21.82
C       1.97      25.50      23.23
C       2.06      24.33      24.01
C       1.97      11.35      18.52
C       1.89      38.78      17.88
C       1.88      37.63      18.66
C       1.99      37.68      20.06
C       2.08      38.95      20.66
C       2.06      40.13      19.92
C       1.99      36.50      20.91
C       1.99      35.21      20.49
C       2.08      32.76      20.74
C       1.98      34.03      21.34
C       1.88      34.08      22.74
C       1.89      32.93      23.52
C       1.97      31.67      22.88
C       2.06      31.58      21.48
C       2.14      11.61      13.17
C       1.79      16.68      12.87
C       1.79      12.01       3.69
C       2.14      17.08       3.39
C       2.14      18.65      15.89
C       1.79      16.37      20.43
C       1.79      26.66      20.97
C       2.14      10.04       0.67
C       2.14      12.77      20.62
C       1.79       9.98      16.38
C       1.79      18.70       0.18
C       2.14      30.26      20.78
O       1.04      27.08      24.74
O       1.04      29.57      23.50
O       1.04      15.06       1.44
O       2.89      27.66      23.60
O       2.89      13.78       1.51
O       2.89      30.27      24.57
O       1.04      13.45      17.90
O       1.04      13.62      15.12
O       1.04      15.95      16.66
O       2.89      12.75      16.83
O       2.89      15.37      17.80
O       2.89      14.91      15.05
