194

Zn       9.76      18.66      18.66
Zn      17.79      10.94       0.99
Zn      17.80       7.70       0.98
Zn      24.27      18.52      18.54
Zn       7.27      18.73       0.97
Zn      17.00      10.86      18.56
Zn      16.95      26.30      18.57
Zn      10.56      18.59       0.99
H      10.85      18.96       7.71
H       6.59      18.25       7.48
H      10.56      18.24      12.11
H       6.31      18.95      11.86
H      17.00       7.15      11.93
H      17.65      11.42      12.00
H      17.86       7.17       7.60
H      17.15      11.42       7.58
H      10.87      14.09      18.02
H      10.24      13.46      19.55
H      11.80      11.72      19.45
H      12.45      12.39      17.95
H       4.60       3.23       1.89
H       5.93       4.39       1.98
H       3.08       5.02       1.98
H       4.42       6.16       2.00
H      12.76      15.77      18.05
H      13.42      16.35      19.58
H      14.98      14.62      19.58
H      14.36      14.07      18.04
H      23.23      23.28      17.99
H      23.76      23.78      19.61
H      22.18      25.50      19.55
H      21.62      24.95      17.97
H      13.13      15.28       1.87
H      11.80      14.12       1.80
H      14.63      13.48       1.89
H      13.30      12.34       1.72
H      21.36      21.59      17.76
H      20.63      20.86      19.18
H      19.05      22.57      19.29
H      19.72      23.26      17.82
H      10.50      23.51      18.53
H      11.66      22.45      17.71
H      13.21      24.20      17.66
H      12.03      25.25      18.46
H      14.84      22.84      19.01
H       6.71      13.64       1.00
H      13.29      21.08      19.03
H       5.19      11.87       1.01
H       2.38      14.33       1.31
H       3.54      13.38       2.22
H       5.03      15.18       2.17
H       3.89      16.10       1.22
H      23.52      13.56      18.41
H      22.38      14.56      17.51
H      20.83      12.81      17.54
H      21.98      11.82      18.45
H      19.19      14.29      18.75
H      11.09       5.10       0.74
H      20.75      16.04      18.71
H      12.63       6.84       0.69
H      15.41       4.37       1.19
H      14.26       5.40       2.03
H      12.72       3.63       2.06
H      13.87       2.62       1.20
H      11.81      17.31       5.17
H       5.88      19.93       4.87
H      11.25      19.91      14.71
H      23.15      17.28      14.41
H      18.55      24.99      14.61
H      15.83      12.23      14.45
H      16.27       6.33       4.97
H      18.90      12.27       5.08
C       2.60      11.92       0.06
C      17.64       9.30       3.45
C       2.59       6.83       0.02
C      23.34      15.96      19.60
C       8.20      18.61      16.13
C      23.34      21.12      19.62
C      14.47      11.91      19.70
C      17.05       9.26      16.10
C      14.43      25.40      19.73
C      19.50      25.26      19.67
C       8.92      18.67       3.46
C      19.55      11.78      19.66
C       8.86      18.63       4.95
C      10.02      18.82       5.73
C       9.95      18.80       7.12
C       8.71      18.61       7.77
C       7.55      18.42       6.99
C       7.63      18.42       5.60
C       8.63      18.60       9.18
C       8.54      18.59      10.40
C       8.45      18.59      11.81
C       9.60      18.40      12.60
C       9.52      18.40      13.99
C       8.28      18.60      14.63
C       7.13      18.79      13.85
C       7.21      18.78      12.46
C      17.15       9.26      14.61
C      17.02       8.07      13.88
C      17.12       8.08      12.49
C      17.33       9.28      11.80
C      17.46      10.48      12.53
C      17.39      10.47      13.92
C      17.40       9.29      10.39
C      17.45       9.29       9.17
C      17.50       9.29       7.76
C      17.71       8.09       7.05
C      17.76       8.09       5.66
C      17.59       9.29       4.94
C      17.37      10.50       5.65
C      17.33      10.50       7.04
C      11.15      13.78      19.04
C      12.20      12.64      18.99
C      13.48      13.06      19.74
C       5.02       4.14       1.42
C       4.00       5.31       1.45
C       3.65       5.75       0.02
C      13.02      15.46      19.07
C      14.06      14.32      19.06
C      22.88      23.49      19.01
C      21.82      24.62      19.00
C      20.51      24.13      19.64
C      12.73      14.42       1.31
C      13.75      13.25       1.29
C      22.27      22.20      19.62
C      21.04      21.80      18.79
C      19.98      22.93      18.84
C      11.53      23.12      18.57
C      12.55      24.28      18.53
C       5.33      15.01       0.03
C       6.08      13.65       0.09
C       5.06      12.49       0.11
C       3.62      13.04       0.09
C       3.41      13.96       1.30
C       4.42      15.14       1.26
C      22.50      13.95      18.41
C      21.46      12.79      18.43
C      20.57      12.91      19.69
C      19.84      14.27      19.64
C      20.87      15.43      19.61
C      22.30      14.86      19.66
C      14.38       4.75       1.15
C      13.36       3.59       1.17
C      11.36      19.17       5.11
C       6.36      18.07       4.84
C      10.78      18.05      14.75
C      23.60      19.15      14.45
C      16.67      25.40      14.54
C      17.69      11.77      14.64
C      18.14       6.79       4.99
C      17.04      11.80       4.95
O       8.07      18.59      19.66
O      10.91      20.21      19.03
O      17.87      10.42       2.90
O       1.62       6.68       0.84
O       1.57      12.04       0.80
O      10.82      17.05      18.97
O      17.46       8.18       2.87
O      16.31       6.53       0.51
O       7.05      18.40      16.64
O      23.11      16.97      18.84
O       9.29      18.83      16.74
O      16.24      12.05       0.63
O      23.19      20.13      18.84
O      16.99       9.26      19.69
O       6.11       1.62       0.62
O      16.77      10.37      16.65
O      15.29      25.31      18.79
O      15.50      12.05      18.96
O       6.24      17.08       0.80
O      17.24       8.14      16.67
O      18.44      25.11      18.98
O      10.05      18.43       2.91
O      11.69      17.03       0.60
O       7.82      18.94       2.87
O      18.65      11.86      18.75
O      11.58       1.59       0.74
O      12.26      18.16       5.00
O      11.66      20.31       4.84
O       5.46      19.07       4.67
O       6.10      16.93       4.52
O      11.68      19.06      14.93
O      11.05      16.91      15.08
O      22.70      18.13      14.56
O      23.29      20.29      14.72
O      17.70      24.53      14.74
O      15.52      25.08      14.75
O      16.67      12.67      14.71
O      18.80      12.06      15.02
O      17.13       5.89       4.81
O      19.29       6.50       4.73
O      18.06      12.70       4.86
O      15.92      12.09       4.60
