180

Zn       2.98       2.08       6.50
Zn       4.14       2.94       8.67
Zn      13.10      14.79       0.85
Zn      15.74      15.04       0.62
Zn      24.80      10.66      14.76
Zn      25.96      13.04      14.94
H       7.20      11.20       2.68
H      13.53      14.01      12.94
H      16.72      18.28      12.59
H      19.84      14.75       4.28
H       5.55       9.41       2.62
H      23.11      11.33      11.90
H      13.63      17.30       9.14
H      22.96      16.38       7.48
H       9.59       2.78       1.62
H      17.77      15.88      14.10
H       9.16      13.77       6.14
H      21.47       9.51      11.82
H      19.97       6.56       8.38
H      15.18       6.44       1.36
H      12.42      11.88      13.43
H      19.13      18.47      12.68
H      17.41      15.06       3.97
H      10.07      15.62      11.42
H      10.84      14.06      11.71
H      11.20      14.97      10.22
H       4.12       4.09       3.84
H      19.17       4.60       3.22
H      14.66      17.78      11.29
H       4.04       5.13       2.40
H      24.03      17.34      13.08
H      25.01      17.22      11.59
H      24.73      18.79      12.37
H       6.09       2.69       4.34
H       7.01       1.92       3.05
H      11.90      16.54       3.84
H      22.36      16.23      14.12
H      17.16      11.44       0.38
H      23.31      14.75      13.94
H      21.89      15.24       5.57
H       3.86       3.84       0.68
H      10.51       6.77      14.63
H       4.86       2.47       1.23
H      11.93       3.07       2.24
H      15.49      15.50      13.19
H       8.56      12.81       4.00
H      20.31       7.75      10.53
H      14.00       4.42       2.16
C       8.38      13.18       8.08
C      19.05      14.35      14.93
C      11.85       6.63       0.60
C      18.39      16.22       7.03
C      18.19      17.25       9.65
C      10.42      14.70      10.93
C       3.59       4.93       3.37
C      24.27      17.82      12.13
C       6.52       1.74       4.01
C      22.69      15.33      14.63
C       4.68       3.17       0.41
C      14.67      16.84       7.30
C      21.94      17.27       9.18
C      23.45      11.27       8.02
C      22.00       9.32       6.51
C      19.48      17.05       9.08
C      17.11      16.53       7.56
C      11.81       7.97       0.12
C       9.48       6.34       0.04
C      18.14       2.59       9.17
C      20.70       7.22       6.44
C       6.04       2.05       6.91
C      13.97      12.40       0.39
C       7.37       1.87       0.44
C      25.29      12.78      12.39
C      20.09       7.67       2.22
C      10.75      10.18      14.53
C      16.74       8.26       0.14
C      14.89      15.49       3.18
C      21.66      18.69      13.29
C      20.08       4.76       6.32
C      20.54      17.92      11.14
C       9.45      15.46       8.17
C       7.60      12.21       8.77
C      21.33       8.31       5.76
C      20.66      17.40       9.81
C      15.94      16.44       6.75
C      12.98       8.77       0.14
C       8.31       5.52       0.00
C       9.08      14.17       8.83
C      20.33       6.07       5.65
C      21.75      18.17      11.90
C      16.05      15.97       5.40
C      14.90      16.07       4.57
C      15.42       8.94       0.20
C      12.05       9.47      14.73
C      20.59       7.40       3.61
C       8.51      13.01      10.92
C       7.20       3.35       0.37
C      14.06      10.96       0.02
C      13.57      17.03       6.40
C      23.10      17.72       9.90
C       5.49       9.39       3.70
C      14.24       8.18       0.47
C      23.23      11.31      10.82
C      14.60      17.10       8.69
C      21.99      16.61       7.91
C       9.56       3.75       1.14
C      17.82      14.84      14.41
C       8.49      13.09       6.67
C      20.53       7.33       7.85
C      14.25       6.87       1.02
C      13.31      11.50      13.93
C      19.23      18.08      11.68
C      13.26      10.23      14.55
C      17.32      15.49       4.96
C       9.29      13.97      10.23
C      20.32       6.16       4.24
C      23.01      17.95      11.30
C      13.72      16.73       5.02
C      21.50      14.51      15.06
C       5.93       3.95       0.10
C      21.10       8.36       8.60
C       7.77      12.17       5.92
C      18.48      15.64       5.73
C       4.70       8.40       4.33
C      18.08      17.75      10.98
C      14.43      12.32      13.98
C      13.08       6.11       1.13
C      22.48      10.39      10.10
C       6.25      10.30       4.42
C      16.71      14.02      14.23
C      10.71       4.53       1.18
C      20.85      16.21       7.23
C      15.73      17.22       9.48
C      20.95       8.48      10.02
C      24.17      12.19      10.20
C       7.88      12.11       4.49
C      19.78      15.25       5.24
C      16.78      17.91      11.57
C      14.43      13.66      13.45
C      13.07       4.80       1.73
C      21.59       9.45      10.74
C       7.14      11.23       3.77
C      15.51      14.48      13.59
C      11.93       4.06       1.77
C      20.91      15.53       5.95
C       8.36       4.18       0.50
C      15.65      17.64      10.86
C      22.61      10.32       8.68
C       6.17      10.31       5.85
C      19.56      16.49       7.78
C      17.02      17.00       8.90
C      16.76      12.66      14.70
C      10.69       5.84       0.59
C      21.91       9.34       7.93
C       6.91      11.25       6.60
C      15.62      11.84      14.62
O      18.13       2.52       7.89
O      20.54      18.92      13.84
O      20.54       4.59       7.50
O       8.93      15.69       6.99
O      19.45       3.84       5.67
O      10.14      16.33       8.79
O      13.78      15.05       2.74
O      22.75      18.90      13.98
O       9.67       9.49      14.34
O      17.79       8.94       0.35
O      25.75      13.74      13.14
O       5.99       2.68       8.03
O      19.32       6.83       1.66
O      14.99      13.01       0.82
O       6.33       1.09       0.44
O      19.17       3.04       9.82
O       5.00       1.81       6.21
O      12.79      12.97       0.37
O       8.55       1.41       0.47
O      25.00      11.64      12.87
O      20.39       8.82       1.68
O      10.73      11.45      14.62
O      22.94      11.17      14.92
O      15.99      15.46       2.51
