178

Zn      -5.43      -3.14      10.84
Zn      19.51      -3.14      10.83
Zn      -7.04      -4.06      13.45
Zn       7.04      18.46      10.84
Zn      19.51      11.26       0.66
Zn       7.03       4.06      21.02
Zn      22.71      11.26       0.66
Zn      21.11      14.04       0.66
H      18.47      16.19       3.04
H      16.32      12.46       3.04
H      11.83      20.03       8.46
H       9.68      16.30       8.46
H       9.67       2.54      18.19
H      11.83       1.29      21.71
H      16.31      -1.29      12.76
H      18.47      -2.54      16.28
H       4.40       2.53      18.19
H       2.24       1.29      21.71
H      -2.24      -1.30      12.77
H      -4.40      -2.54      16.28
H      23.75      16.20       3.03
H      25.90      12.47       3.03
H      30.39      20.03       8.46
H      32.55      16.30       8.46
H      23.27       7.90       3.03
H      18.96       7.89       3.03
H      23.27       0.23       8.46
H      18.96       0.23       8.45
H       7.04       7.11      18.19
H       7.04       9.60      21.71
H       7.04      14.78      12.77
H       7.04      17.27      16.28
C      21.11      -1.11       9.40
C      18.55      -2.58      13.58
C      -4.48      -2.59      13.58
C       7.04      17.36      13.58
C       9.60      18.84       9.40
C      32.63      18.84       9.40
C       4.48       2.58      20.89
C       9.59       2.58      20.89
C      21.11       9.23       2.09
C      23.67      13.66       2.09
C      18.55      13.66       2.09
C       7.04       7.01      20.89
C      17.50      14.27       2.95
C      17.61      15.61       3.35
C      16.63      16.17       4.16
C      15.50      15.42       4.58
C      15.42      14.07       4.15
C      16.40      13.50       3.35
C      14.50      16.00       5.39
C      13.64      16.50       6.10
C      12.65      17.07       6.91
C      12.73      18.42       7.34
C      11.75      18.99       8.14
C      10.65      18.22       8.54
C      10.53      16.89       8.14
C      11.52      16.32       7.34
C      10.65       1.97      20.03
C      10.53       2.04      18.64
C      11.52       1.47      17.84
C      12.65       0.82      18.40
C      12.73       0.77      19.82
C      11.75       1.34      20.62
C      13.64       0.25      17.59
C      14.50      -0.25      16.88
C      15.50      -0.82      16.07
C      15.41      -0.77      14.65
C      16.39      -1.34      13.85
C      17.49      -1.97      14.44
C      17.61      -2.04      15.83
C      16.63      -1.47      16.63
C       3.42       1.97      20.03
C       3.54       2.04      18.64
C       2.55       1.47      17.84
C       1.42       0.82      18.40
C       1.34       0.77      19.82
C       2.32       1.34      20.62
C       0.43       0.24      17.59
C      -0.43      -0.25      16.89
C      -1.43      -0.83      16.07
C      -1.34      -0.78      14.66
C      -2.32      -1.34      13.85
C      -3.42      -1.98      14.44
C      -3.54      -2.05      15.84
C      -2.56      -1.48      16.64
C      24.73      14.27       2.95
C      24.61      15.61       3.35
C      25.59      16.17       4.15
C      26.72      15.43       4.58
C      26.81      14.07       4.15
C      25.83      13.50       3.35
C      27.72      16.00       5.39
C      28.58      16.50       6.10
C      29.57      17.07       6.91
C      29.49      18.42       7.34
C      30.47      18.99       8.14
C      31.57      18.23       8.54
C      31.69      16.89       8.14
C      30.70      16.32       7.34
C      21.11       8.01       2.95
C      22.33       7.45       3.35
C      22.33       6.31       4.15
C      21.11       5.71       4.58
C      19.90       6.31       4.15
C      19.90       7.45       3.35
C      21.11       4.56       5.39
C      21.11       3.56       6.10
C      21.11       2.42       6.91
C      22.33       1.81       7.34
C      22.33       0.68       8.14
C      21.11       0.11       8.54
C      19.90       0.68       8.14
C      19.90       1.81       7.33
C       7.04       8.23      20.03
C       7.04       8.10      18.64
C       7.04       9.24      17.84
C       7.04      10.54      18.40
C       7.04      10.64      19.82
C       7.04       9.50      20.62
C       7.04      11.69      17.59
C       7.04      12.69      16.88
C       7.04      13.83      16.07
C       7.04      13.74      14.65
C       7.04      14.87      13.85
C       7.04      16.14      14.44
C       7.04      16.27      15.84
C       7.04      15.14      16.63
Cl      14.07      13.12       4.64
Cl      16.78      17.82       4.64
Cl      11.37      14.68       6.85
Cl      14.08      19.38       6.85
Cl      14.08      -0.00      20.55
Cl      11.37       1.56      16.12
Cl      16.78      -1.56      18.35
Cl      14.07       0.00      13.92
Cl      -0.01      -0.01      20.55
Cl       2.70       1.56      16.13
Cl      -2.71      -1.57      18.35
Cl       0.01      -0.00      13.92
Cl      28.15      13.12       4.64
Cl      25.44      17.82       4.64
Cl      30.85      14.68       6.85
Cl      28.14      19.38       6.85
Cl      18.40       5.62       4.64
Cl      23.83       5.62       4.64
Cl      18.40       2.50       6.85
Cl      23.83       2.50       6.85
Cl       7.04      12.19      20.55
Cl       7.04       9.06      16.12
Cl       7.04      15.31      18.35
Cl       7.04      12.18      13.92
O      21.11      -4.06      11.49
O      22.25      -1.58       9.73
O      18.39      -2.49      12.31
O      -5.46      -3.15      14.18
O      19.97      -1.58       9.73
O      -4.32      -2.49      12.32
O      19.53      -3.15      14.18
O       7.04      18.49      14.18
O       8.62      18.08       9.73
O       7.04      17.17      12.32
O       9.76      20.06       9.73
O      32.46      20.06       9.73
O      33.60      18.08       9.73
O      21.11      12.19       0.00
O       4.31       2.49      22.16
O       8.62       3.15      20.30
O      22.25       9.70       1.76
O       5.45       3.15      20.30
O      19.97       9.70       1.76
O       9.76       2.49      22.16
O      23.83      12.44       1.76
O      19.53      14.41       1.76
O      22.69      14.41       1.76
O      18.39      12.44       1.76
O       7.04       5.89      20.29
O       7.04       7.20      22.16
