58

Al       6.12       5.97       8.36
Al       2.82       6.00       8.35
H       4.48       7.54       7.53
H       7.82       4.39       9.04
H       8.99       6.88      12.40
H       9.01       7.10      14.90
H       6.59       6.03      14.91
H       5.65       5.92       1.81
H       3.23       4.91       1.83
H       3.25       5.12       4.32
H       9.34       8.89      10.31
H      10.66      10.21      11.91
H       6.01       3.26      10.29
H       7.46       2.10      11.90
H       6.63       5.74      11.38
H       5.60       6.20       5.35
C       7.70       8.38       8.43
C       7.84       5.78       5.93
C       4.51       3.58       8.28
C       4.39       6.20      10.79
C       4.46       6.36      12.25
C       9.91       6.72      12.96
C       9.91       6.83      14.34
C       4.50       6.56      15.04
C       5.67       6.23      14.35
C       5.67       6.12      12.96
C       6.56       5.74       2.37
C       7.74       5.42       1.68
C       2.33       5.17       2.38
C       2.33       5.27       3.76
C       7.77       5.62       4.48
C       6.56       5.84       3.76
C       7.67       9.88       8.39
C       8.46      10.61       9.32
C       6.87      10.53       7.46
C       9.29       9.97      10.28
C      10.03      10.72      11.18
C       4.52       2.08       8.32
C       3.77       1.34       7.42
C       5.34       1.44       9.30
C       6.08       2.17      10.26
C       6.89       1.52      11.18
Br       2.77       2.23       6.07
Br       5.89       9.54       6.17
N       4.63       6.60      16.45
N       7.61       5.38       0.28
O       6.61       7.78       8.72
O       8.96       5.65       6.53
O       3.42       4.18       8.54
O       5.48       5.83      10.18
O       5.62       4.15       8.03
O       3.29       6.39      10.19
O       8.80       7.81       8.18
O       6.74       6.09       6.55
O       4.48       6.59       7.76
O       7.77       5.36       8.96
O       6.83       5.77      12.36
O       5.40       6.17       4.37
