128

Zn       6.84       8.95      14.02
Zn       9.61       8.96      14.01
H      10.65       6.61       3.43
H       6.15      11.68      24.61
H       6.75       7.54      18.26
H       9.64      10.44       9.79
H       6.76       7.49      20.77
H       9.62      10.51       7.28
H      10.19       6.32      24.61
H       5.90      11.36       3.44
H      10.25       6.32      27.08
H       5.91      11.42       0.97
H      10.66       6.57       0.95
H       6.09      11.69      27.08
H       6.07      15.72      14.46
H      10.37       2.20      14.59
H       6.06       2.20      14.48
H      10.38      15.70      14.67
H       6.08      13.23      14.20
H      10.36       4.69      14.32
H       6.08       4.69      14.20
H      10.37      13.21      14.39
H       2.20       7.39      12.53
H      14.24      10.54      15.50
H       2.21      10.52      15.52
H      14.24       7.37      12.55
H       4.72       7.47      12.59
H      11.72      10.46      15.43
H       4.73      10.45      15.45
H      11.73       7.45      12.61
H       6.81       5.85       9.43
H       6.88       6.76      10.96
H       5.55       7.03       9.82
H       9.75      12.03      18.61
H      10.95      10.80      18.16
H       9.60      11.14      17.07
H       5.52       7.01       7.36
H       6.56       7.19       5.94
H       6.91       5.94       7.14
H      10.00      10.66      22.08
H      11.00      10.85      20.62
H       9.64      11.94      20.92
C       8.22       6.32      14.08
C       8.23      11.59      14.12
C       8.23       8.89      11.40
C       8.21       9.03      16.64
C       9.13       8.06       5.04
C       7.44      10.02      23.00
C       7.37       9.84       5.05
C       8.95       8.02      23.00
C       9.01       9.79       7.83
C       7.40       8.18      20.22
C       9.02       9.75       9.22
C       7.39       8.21      18.83
C       7.43       7.90       9.20
C       9.05      10.01      18.84
C       7.42       7.94       7.78
C       9.07       9.97      20.25
C       8.21       8.89       7.13
C       8.23       9.06      20.91
C       8.27       8.98       2.85
C       8.18       9.01      25.19
C       9.13       8.10       3.56
C       7.44       9.98      24.48
C       9.99       7.26       2.86
C       6.71      10.94      25.18
C       7.41       9.85       3.57
C       8.92       8.03      24.48
C       8.22       8.83       9.90
C       8.22       9.10      18.14
C       8.98       8.05      27.32
C       7.42       9.90       0.73
C       7.39       9.98      27.32
C       9.11       8.06       0.72
C       8.18       9.01      26.62
C       8.27       8.98       1.42
C       9.67       7.09      26.57
C       6.58      10.73       1.47
C       9.65       7.07      25.18
C       6.57      10.71       2.87
C       9.97       7.24       1.46
C       6.68      10.93      26.57
C       7.01      15.17      14.46
C       9.43       2.75      14.51
C       7.00       2.75      14.44
C       9.44      15.16      14.57
C       7.01      13.79      14.31
C       9.43       4.13      14.35
C       7.01       4.13      14.29
C       9.43      13.78      14.42
C       8.22      13.08      14.28
C       8.22       4.83      14.23
C       8.22      15.87      14.58
C       8.21       2.04      14.55
C       8.23      17.28      14.66
C       8.21       0.63      14.65
C       2.72       8.08      13.19
C      13.72       9.84      14.85
C       2.73       9.83      14.86
C      13.72       8.07      13.20
C       4.11       8.12      13.22
C      12.33       9.80      14.82
C       4.12       9.80      14.82
C      12.33       8.11      13.23
C       2.00       8.96      14.03
C      14.44       8.96      14.03
C       0.59       8.96      14.03
C      15.86       8.96      14.03
C       6.63       6.83       9.90
C       9.87      11.05      18.12
C       6.56       6.98       7.01
C       9.97      10.90      21.01
N       8.24       8.94       5.69
N       8.20       9.03      22.35
N       4.79       8.96      14.02
N      11.66       8.95      14.02
O       7.08       6.90      14.02
O       9.37      11.02      14.06
O       7.10      11.01      14.06
O       9.35       6.91      14.03
O       7.10       8.91      11.99
O       9.34       9.00      16.05
O       7.07       8.97      16.07
O       9.37       8.95      11.97
O       9.86       7.30       5.69
O       6.83      10.86      22.35
O       9.60       7.20      22.35
O       6.61      10.55       5.70
