98

Al       6.22       9.62      10.26
Al       2.88       9.70      10.13
Al       2.10       0.96      20.31
Al       5.44      18.36       0.08
H       5.35       8.16      15.85
H       2.01      11.16       4.53
H       1.59       3.45      16.65
H       4.93      15.87       3.73
H       2.17       3.43      14.77
H       5.51      15.89       5.62
H       3.25       3.65      12.57
H       6.59      15.67       7.82
H       6.35       8.30      13.68
H       3.02      11.03       6.71
H       5.27       4.05      20.00
H       1.94      15.27       0.39
H       4.74       7.84      17.55
H       1.40      11.48       2.84
H       3.02       6.54      10.64
H       6.35      12.78       9.74
H       4.45       9.09      11.85
H       1.12      10.23       8.53
H       3.87       1.42      18.70
H       0.53      17.91       1.69
C       4.58       8.01       8.41
C       1.24      11.31      11.98
C       4.59      11.61       8.73
C       1.25       7.71      11.66
C       5.68       6.17      17.70
C       2.34      13.15       2.68
C       0.20       4.10      18.12
C       3.53      15.22       2.26
C       2.38       5.56      12.14
C       5.71      13.76       8.24
C       2.58       4.42      12.94
C       5.92      14.90       7.45
C       1.97       4.32      14.17
C       5.31      15.00       6.22
C       1.11       5.33      14.67
C       4.45      13.99       5.71
C       0.81       6.43      13.82
C       4.14      12.89       6.57
C       0.55       5.25      16.01
C       3.88      14.07       4.38
C       6.30       6.27      16.44
C       2.97      13.05       3.95
C       6.03       7.36      15.55
C       2.69      11.97       4.83
C       6.59       7.44      14.31
C       3.25      11.88       6.08
C       0.86       4.22      16.90
C       4.20      15.10       3.48
C       5.89       5.06      18.52
C       2.56      14.26       1.87
C       1.45       6.54      12.55
C       4.78      12.78       7.84
C       0.41      16.65      17.60
C       3.74       2.68       2.79
C       0.54      15.80      16.72
C       3.88       3.52       3.67
C       0.71      14.89      15.75
C       4.05       4.43       4.63
C       0.90      14.06      14.86
C       4.23       5.26       5.53
C       1.07      13.15      13.89
C       4.41       6.17       6.50
C       1.22      12.32      13.00
C       4.55       7.00       7.39
C       3.73      16.43       1.43
C       0.39       2.90      18.96
C       3.73       1.66       1.77
C       0.40      17.67      18.61
O       3.44      11.13       8.97
O       0.10       8.19      11.41
O       5.71       8.39       8.85
O       2.37      10.94      11.53
O       5.68      11.15       9.25
O       2.34       8.17      11.14
O       0.09      10.88      11.63
O       3.43       8.45       8.76
O       4.52       9.54      11.00
O       1.19       9.78       9.39
O       4.88       1.22       1.44
O       1.55      18.10      18.95
O       2.64      16.90       0.92
O       5.98       2.42      19.46
O       2.60       1.28       1.33
O       5.94      18.04      19.06
O       1.54       2.39      19.14
O       4.88      16.94       1.25
O       3.80       1.04      19.59
O       0.46      18.28       0.80
O       5.19       4.98      19.68
O       1.86      14.34       0.71
O       4.81       7.11      18.18
O       1.47      12.21       2.20
O       3.09       5.62      10.99
O       6.42      13.70       9.40
