92

Zn       6.16       9.69       7.68
Zn      -1.35      -1.42       7.56
Zn      -6.62      10.60       9.74
Zn      11.58      -2.27       5.68
H       5.16       7.01       9.29
H      -3.38       0.41       9.36
H      10.63       0.85       4.88
H      -7.49       8.50      12.11
H       4.51       7.50       5.32
H      -3.93       7.76       8.65
H       4.21      11.76       2.30
H       3.33       4.71      13.17
H      -2.22      -2.64      13.36
H       1.51      -0.01       8.31
H       7.69      11.42       3.14
H       7.84       8.27       5.24
H       1.97      -3.77      10.43
H       2.90       6.34       0.56
H      -2.97       2.52      14.47
H      -3.12      12.13       0.15
H       9.43      -0.59       7.28
C       5.96       7.53       9.81
C       8.45       8.56       6.09
C       4.75      10.53       4.04
C      -2.32       1.41       6.75
C       1.62      -2.90       9.87
C       4.30       9.18       3.83
C       2.34      -1.74       9.49
C      -5.94       7.99       6.55
C      -5.78      11.65       3.83
C       7.48      -1.80       9.19
C       6.29      -1.61       9.44
C      -3.40       2.00       6.05
C       4.95      -1.51       9.60
C       3.72      -1.54       9.61
C      -3.78       3.34       5.96
C      -2.58      -2.17      11.25
C      -4.21       4.49       5.93
C      -4.73       5.73       6.00
C      -5.28       6.82       6.15
C      -3.19       0.02      12.34
C      -2.94       1.42      14.53
C       2.90       7.43       0.51
C      -3.05      -0.82      11.22
C       3.29       8.11       1.67
C      -3.14       0.69      13.36
C       3.72       8.62       2.69
C      -5.05      11.51       2.65
C       9.55      -1.56       7.75
C      -4.16      11.79       0.22
C       5.17       5.19      14.25
C       5.69       5.75      13.07
C      -4.65      11.53       1.49
C       6.04       6.40      12.09
C       8.74      -2.18       8.73
C      -3.11      -0.52       9.85
C       9.41      -3.41       8.96
C      11.52       0.87       5.51
C      -8.14       8.30      11.26
C       6.47       7.30      11.11
C      -4.71       8.53       8.79
C       4.68      11.75       3.30
C       3.77       4.70      14.20
C      -2.04      -2.97      12.32
C       4.66       8.54       5.03
C       1.39      -0.97       8.80
C      -5.63       8.77       7.71
C       8.40      11.66       3.92
C      -5.37      12.04       5.13
I      -3.41      12.17       5.78
I      -0.86       2.36       7.87
I       3.39      10.00      10.30
N       6.59       8.59       9.27
N      -2.41      -2.60       9.98
N      10.57      -2.37       7.42
N      -2.70      -1.60       9.13
N      10.49      -3.52       8.16
N      12.14      -0.25       5.87
N      -8.08       9.07      10.17
N       5.26       9.42       5.86
N       0.22      -1.63       8.77
N      -6.58       9.71       7.87
N       8.03      12.04       5.14
N      -6.44      12.29       5.91
N       8.09       9.58       6.91
N       5.32      10.62       5.26
N       0.36      -2.83       9.43
N      -2.36       0.07       6.64
O      -4.82       9.12       9.88
O       5.15      12.82       3.78
O       3.11       4.33      15.17
O      -1.35      -3.98      12.09
