168

Zn       4.35      13.89      13.89
Zn       1.45       5.72       5.72
Zn      -0.00       4.08      15.53
Zn       2.90      15.53       4.08
Zn       1.45      14.83      14.83
Zn       4.35       4.79       4.79
Zn       2.90       5.02      14.59
Zn       0.00      14.59       5.02
H       3.25      11.46      14.25
H       0.56       9.56      12.60
H       3.29       8.75      15.44
H       1.45       7.41      14.99
H       5.12      10.14      14.59
H       2.71       9.11      12.99
H       0.35       8.16       5.37
H       3.46      10.06       7.01
H       0.40      10.87       4.17
H       4.35      12.20       4.63
H       2.22       9.48       5.02
H       5.61      10.50       6.63
H       4.70       4.44      17.97
H       2.01       2.80       0.25
H       4.74       5.64       1.06
H       2.90       5.18       2.39
H       0.77       4.78      19.28
H       4.16       3.18       0.69
H       1.80      15.18       1.65
H       4.91      16.82      19.36
H       1.84      13.98      18.56
H       0.00      14.44      17.22
H       3.67      14.83       0.33
H       1.26      16.43      18.92
H       4.00      17.97       4.44
H       0.89       0.25       2.80
H       3.95       1.06       5.64
H       5.80       2.39       5.18
H       2.13      19.28       4.78
H       4.54       0.69       3.18
H       1.10       1.65      15.18
H       3.79      19.36      16.82
H       1.06      18.55      13.98
H       2.90      17.22      14.44
H       5.03       0.33      14.83
H       1.65      18.92      16.44
H       2.55       5.37       8.16
H       5.24       7.01      10.06
H       2.51       4.17      10.87
H       4.35       4.63      12.20
H       0.68       5.02       9.48
H       3.09       6.63      10.50
H       5.45      14.24      11.46
H       2.34      12.60       9.56
H       5.41      15.44       8.75
H       1.45      14.99       7.41
H       3.58      14.59      10.14
H       0.19      12.99       9.11
C       0.63      11.83      14.47
C       0.01      10.52      12.55
C       3.47       7.93      14.73
C       4.77       7.19      15.10
C       5.25      11.01      13.94
C       3.55       8.45      13.28
C       3.53       7.78       5.14
C       2.90       9.09       7.06
C       0.57      11.69       4.88
C       1.87      12.43       4.51
C       2.35       8.60       5.68
C       0.65      11.16       6.33
C       2.08       4.67      17.59
C       1.46       2.74      18.90
C       4.92       4.92       1.88
C       0.42       5.29       2.62
C       0.91       4.13      18.41
C       5.00       3.47       1.35
C       4.98      14.95       2.02
C       4.36      16.87       0.71
C       2.02      14.69      17.73
C       3.32      14.32      16.99
C       3.81      15.49       1.20
C       2.10      16.14      18.26
C       0.82      17.59       4.67
C       1.45      18.90       2.74
C       3.78       1.88       4.92
C       2.48       2.62       5.29
C       2.00      18.41       4.13
C       3.70       1.35       3.47
C       3.72       2.02      14.95
C       4.35       0.71      16.87
C       0.88      17.73      14.69
C       5.38      16.99      14.32
C       4.89       1.20      15.49
C       0.80      18.26      16.14
C       5.17       5.14       7.78
C       5.79       7.06       9.09
C       2.33       4.88      11.69
C       1.03       4.51      12.43
C       0.54       5.68       8.60
C       2.25       6.33      11.16
C       2.27      14.47      11.83
C       2.90      12.55      10.52
C       5.23      14.73       7.93
C       3.93      15.10       7.19
C       3.45      13.94      11.01
C       5.15      13.28       8.45
O       0.40      13.10      14.51
O       1.70      11.25      14.75
O       4.09      11.82      13.84
O       5.71      11.16      11.53
O       4.39       8.08      12.48
O       2.36       7.04      14.69
O       4.70       5.90      15.17
O       5.79       7.89      15.27
O       3.30       6.51       5.10
O       4.60       8.36       4.86
O       1.19       7.80       5.77
O       2.81       8.45       8.08
O       1.49      11.53       7.13
O       5.26      12.58       4.93
O       1.80      13.72       4.45
O       2.89      11.73       4.34
O       1.85       4.70      16.32
O       3.15       4.94      18.17
O       5.54       4.04      17.60
O       1.36       1.72      18.26
O       0.04       2.68       1.73
O       3.81       4.88       2.77
O       0.35       5.36       3.91
O       1.44       5.47       1.92
O       4.75      14.91       3.30
O       0.25      14.67       1.45
O       2.64      15.58       2.01
O       4.26      17.89       1.36
O       2.94      16.94      17.89
O       0.91      14.73      16.85
O       3.25      14.26      15.71
O       4.34      14.15      17.70
O       1.05      16.32       4.70
O       5.55      18.17       4.94
O       3.16      17.60       4.04
O       1.54      18.26       1.72
O       2.86       1.73       2.68
O       4.89       2.77       4.88
O       2.55       3.91       5.36
O       1.46       1.92       5.47
O       3.95       3.30      14.91
O       2.65       1.45      14.67
O       0.26       2.01      15.58
O       4.44       1.35      17.89
O       5.76      17.89      16.94
O       1.99      16.85      14.73
O       5.45      15.71      14.26
O       4.36      17.69      14.15
O       5.40       5.10       6.51
O       4.10       4.86       8.36
O       1.71       5.77       7.80
O       0.09       8.08       8.45
O       1.41       7.13      11.53
O       3.44       4.93      12.58
O       1.10       4.45      13.72
O       0.01       4.34      11.73
O       2.50      14.51      13.11
O       1.20      14.75      11.25
O       4.61      13.84      11.82
O       2.99      11.53      11.16
O       4.31      12.48       8.08
O       0.54      14.69       7.04
O       4.00      15.17       5.90
O       2.91      15.27       7.89
