124

Cu       2.02       3.06       4.06
Cu       2.63       3.78       1.02
Cu       3.41       0.97       2.10
Cu       9.90      20.78      16.30
Cu       9.44      20.31      13.35
Cu       7.09      21.62      15.03
Cu      20.18      14.19       8.02
Cu      19.11      15.04      10.81
Cu      17.68      12.62       9.38
Cu      12.71       9.66      20.25
Cu      13.17       9.01      23.32
Cu      13.96      11.78      22.25
H      20.83       5.44       4.83
H       0.49       6.07       0.56
H       4.11      20.28       3.93
H       2.27       1.45       6.82
H       4.86       5.88      22.82
H       6.47      23.72      24.11
H      11.98      18.35      16.98
H      11.71      18.18      12.64
H       5.17       1.68      17.34
H      10.13      22.94      18.58
H       8.20      20.46      10.45
H       4.68      21.19      12.88
H       1.47      16.62       7.45
H      21.37      17.13      11.67
H      17.12      10.45       7.12
H      20.83      12.18       5.67
H      17.15      15.56      13.21
H      15.45      11.89      11.63
H      10.68       7.30      19.47
H      10.83       6.91      23.79
H      13.91      14.34      20.39
H      13.19      11.22      17.46
H      15.05       6.86       1.45
H      15.54      11.03       0.32
C       0.32       5.43       3.79
C      20.64       6.20       2.71
C       0.55       5.74       1.59
C       3.87      21.20       4.45
C       3.64      21.41       5.82
C       2.54       0.88       5.94
C       4.88       4.92      23.32
C       5.66       3.77      23.03
C       5.26       2.82      23.98
C      11.76      18.50      15.93
C      12.22      17.78      14.80
C      11.63      18.42      13.70
C       6.20       1.35      17.48
C       7.17       1.80      18.38
C       9.16      22.94      18.09
C       7.49      20.68      11.24
C       6.09      20.75      11.17
C       5.68      21.02      12.50
C       1.06      16.58       8.45
C       1.43      17.33       9.59
C      21.42      16.83      10.63
C      18.00      11.05       6.94
C      18.99      10.91       5.94
C      19.92      11.93       6.21
C      16.89      14.68      12.63
C      15.89      13.72      12.87
C      16.03      12.78      11.83
C      10.92       7.36      20.53
C      10.32       6.68      21.61
C      10.98       7.17      22.75
C      13.71      13.42      19.86
C      13.60      13.20      18.48
C      13.38      11.81      18.35
C      15.01       7.85       0.99
C      15.71       9.02       1.33
C      15.24       9.99       0.43
N      13.93      14.87      15.47
N      18.25       8.51       3.60
N       8.10       4.27      20.59
N       3.61      19.92       8.93
N       1.41       4.78       1.97
N       1.26       4.58       3.33
N       2.61       1.44       4.72
N       2.93       0.46       3.80
N       4.09       1.49       0.46
N       3.85       2.79       0.05
N      10.86      19.43      14.13
N      10.95      19.48      15.51
N       8.88      22.10      17.08
N       7.58      22.31      16.68
N       6.76      21.10      13.29
N       7.89      20.87      12.51
N      20.61      15.87      10.14
N      20.91      15.70       8.80
N      19.51      12.64       7.28
N      18.33      12.07       7.74
N      17.04      13.16      11.03
N      17.59      14.32      11.54
N      11.91       8.07      22.37
N      11.86       8.20      21.00
N      13.35      11.25      19.58
N      13.59      12.25      20.51
N      14.59      11.29      23.92
N      14.43       9.96      24.29
N      19.35       7.70       3.73
N      19.67       7.18       2.62
N      13.20      16.00      15.72
N      12.99      16.65      14.64
N       2.62      19.00       8.75
N       2.41      18.29       9.78
N       9.18       5.09      20.57
N       9.30       5.74      21.65
N       3.88      20.84       7.94
N       3.62      20.40       6.78
N      14.01      13.86      16.39
N      13.64      14.22      17.55
N       8.10       3.38      19.56
N       7.01       2.76      19.37
N      18.03       9.53       4.48
N      19.13      10.01       4.90
N       7.05       4.58      21.50
N       6.68       3.54      22.12
N      14.70      14.83      14.33
N      14.94      13.67      13.89
N      17.33       8.23       2.62
N      16.72       9.28       2.25
N       4.22      20.10      10.16
N       5.41      20.51      10.00
