140

Zn      -3.01       8.95       0.67
Zn       4.63      13.38      13.14
Zn      12.27       8.94       0.68
Zn      13.86       6.17       0.65
Zn      12.26      17.78       6.91
Zn      -3.00      17.79       6.89
Zn      13.86      18.74       9.51
Zn       4.60       4.54       6.89
H      16.45       8.72       6.49
H      -1.16       4.80       0.48
H       9.51       8.34      14.71
H       2.04       1.98       1.06
H       2.36       2.76       3.37
H      19.63       5.89       7.06
H      18.22       7.70       7.93
H      16.10       7.93       4.19
H      11.72      12.42       2.97
H      11.73      14.46       4.40
H      -1.42      14.80       3.93
H      -1.53      13.78       5.38
H      -1.43      12.73       2.48
H      -1.53      11.71       3.93
H       9.06       7.71       3.08
H       7.30       6.70       4.51
H      10.35       2.36       5.21
H       9.45       1.86       3.76
H      12.14       3.39       3.75
H      11.24       2.89       2.30
H       4.48      10.30      10.28
H       4.47       8.27       8.85
H      22.35       5.18      13.18
H      24.13       5.23      13.10
H      22.36       7.24      14.63
H      24.14       7.29      14.56
H      18.27      16.15      13.80
H      16.53      17.18      12.34
H       0.26      14.81       8.08
H       1.15      16.36       8.02
H       2.93      15.36       9.52
H       9.47      16.12      13.81
H      11.23      17.13      12.38
H       8.14      16.45       8.06
H       9.01      14.90       8.05
H       6.34      15.42       9.52
H       7.22      13.87       9.51
C       4.63      10.43      13.00
C      13.85      10.97       2.11
C       7.19      14.86      13.04
C      11.30       6.55       2.09
C      20.54      14.84      13.03
C      16.41       6.53       2.10
C      -0.39       4.36       1.12
C       0.41       3.36       0.63
C       1.41       2.77       1.45
C       1.59       3.21       2.74
C       0.79       4.26       3.29
C      -0.23       4.85       2.45
C      19.46       4.76       4.59
C      18.68       5.82       5.10
C      17.66       6.41       4.27
C      17.47       5.91       2.96
C      18.85       6.32       6.43
C      18.07       7.34       6.91
C      17.06       7.92       6.09
C      16.87       7.47       4.81
C      -3.43      12.76       3.44
C      13.87      12.19       2.96
C      12.67      12.84       3.33
C      12.67      13.98       4.13
C      13.87      14.55       4.60
C      -3.43      13.90       4.24
C      -1.92      13.92       4.36
C      -1.92      12.63       3.45
C      10.32       4.60       3.37
C      10.26       5.93       2.95
C       9.14       6.67       3.39
C       8.15       6.10       4.19
C       8.23       4.75       4.61
C       9.33       4.03       4.17
C      10.02       2.68       4.21
C      11.14       3.33       3.30
C      23.15       7.93      12.68
C       4.61       9.22      12.14
C       4.54       9.31      10.73
C       4.53       8.17       9.93
C       4.59       6.87      10.48
C      23.14       6.79      11.87
C      23.22       5.84      13.05
C      23.22       7.13      13.96
C       1.08      15.41      10.78
C      19.49      15.44      12.17
C      18.37      16.10      12.71
C      17.39      16.68      11.90
C      -1.00      16.64      10.49
C       0.11      15.98       9.96
C       0.80      15.55       8.68
C       1.92      14.94       9.61
C       8.17      15.42      10.78
C       8.24      15.45      12.17
C       9.38      16.08      12.73
C      10.36      16.65      11.92
C      10.28      16.62      10.51
C       9.16      15.99       9.97
C       8.46      15.60       8.69
C       7.34      14.96       9.60
C       7.17       4.15       5.46
C      11.33      17.23       9.66
C      13.87      15.77       5.46
C       4.59       5.66       9.62
C      -2.05      17.25       9.63
C      20.52       4.15       5.46
N       2.08      13.44       9.48
O      13.87       8.02       0.00
O      23.13      10.23      14.26
O      -3.48      10.47       1.82
O       6.20      14.31      12.43
O      11.15       7.78       1.78
O       3.04      14.29      12.42
O      15.42       5.79       1.78
O      20.37      14.92      14.29
O      -1.89       7.74       1.75
O       7.34      14.95      14.30
O      12.27       5.79       1.74
O       4.62      11.56      12.41
O      12.72      10.53       1.74
O      23.08       2.69       7.55
O       6.20       4.91       5.81
O      11.17      17.12       8.40
O      -3.47      16.21       5.82
O      23.11       4.54      10.23
O      -1.87      17.15       8.37
O       3.04       4.89       5.74
O      15.45      17.82      10.22
O      20.33       2.95       5.84
O      12.73      16.27       5.76
O       4.54       5.84       8.35
O       7.33       2.92       5.78
O      12.30      17.82      10.25
O       3.20      13.01       9.20
O       1.06      12.75       9.65
