248

Zn      26.13       8.41      16.24
Zn       9.23       7.37      13.73
Zn       9.33       5.70      16.41
Zn      10.79       8.55      16.22
Zn      20.16       1.60      22.96
Zn      18.55       4.37      22.72
Zn      18.43       2.69      25.45
Zn      16.94       1.63      22.82
Zn      18.53      12.54       9.80
Zn      16.95      11.46       7.27
Zn      20.15      11.54       7.19
Zn      18.43      14.27       7.07
Zn       9.21      15.59       0.77
Zn       1.63       0.95       0.59
Zn      17.00       0.96       0.61
Zn      18.45      14.93      29.36
H      29.91      15.21      20.52
H      18.51      15.99      12.57
H      23.36       2.65      20.51
H      20.36       6.95      19.39
H      21.25       7.55      20.81
H      23.08       8.41      19.30
H      22.20       7.80      17.88
H      13.76       9.82       9.27
H      16.71      10.66      13.66
H      15.84      12.21      13.59
H      13.98      11.23      14.98
H      14.85       9.68      15.07
H      23.32       9.78       9.23
H      21.21      12.22      13.50
H      20.31      10.68      13.56
H      22.13       9.69      15.01
H      23.03      11.22      14.93
H      15.94       6.40      20.24
H      13.54       1.65      19.70
H      12.67       2.26      21.12
H      10.95       3.33      19.60
H      11.83       2.71      18.18
H      18.46       9.19      30.16
H      23.02       0.29      29.95
H      25.96      -0.55      25.56
H      34.33      15.29      25.63
H      23.23      -1.12      24.23
H      24.11       0.43      24.17
H      11.84      -1.09      26.47
H      14.21       1.44      30.54
H      15.10      -0.10      30.60
H      16.81       0.83      28.99
H      15.92       2.37      28.93
H      20.72       4.71       2.95
H      11.85      13.58       3.22
H       5.86       0.34       2.35
H       4.97       0.96       3.77
H       6.68      -0.10       5.30
H      16.81      16.69       3.89
H      13.79      -0.11       3.00
H      25.10      12.36       2.69
H      25.97      12.97       4.12
H      24.12      12.12       5.61
H      23.24      11.52       4.18
H      24.73      12.86      19.04
H       9.26       3.79       9.82
H      18.49       9.50      24.28
H      15.59       7.14       4.50
C      25.25       8.84      13.47
C       9.27       4.43      13.76
C      25.31       6.06      17.82
C      11.86       6.25      17.79
C      27.69      10.57      17.55
C      11.78       8.87      13.48
C      21.12       3.91      21.35
C      18.49       5.64      25.38
C      21.02       1.21      25.73
C      15.91       1.19      25.58
C      18.60      -0.49      21.57
C      15.96       3.93      21.31
C      15.99      11.10      10.05
C      18.57       9.41       5.91
C      21.10      11.12       9.98
C      21.02      13.88       5.65
C      18.46      15.50       9.75
C      15.91      13.76       5.68
C      11.81      16.04       2.15
C      18.61       3.06       1.92
C      25.26      16.02       2.17
C      25.25      -1.01      29.16
C      18.46      11.97      29.41
C      11.80      -1.02      29.16
C      26.60      12.55      18.82
C      28.88      14.92      20.33
C      27.68      11.80      18.34
C      27.81      15.66      20.79
C      28.45      13.79      19.61
C      27.04      13.68      19.55
C       9.26       3.07      11.59
C       9.27      -0.54      11.92
C       9.28       3.20      12.98
C       9.24      -0.66      10.54
C       9.28       0.82      12.31
C       9.26       1.70      11.21
C      22.18       4.45      20.46
C      24.28       5.45      18.72
C      22.14       5.74      19.92
C      24.30       4.14      19.27
C      23.16       6.20      19.09
C      23.29       3.67      20.11
C      21.36       7.03      19.85
C      22.51       7.56      18.91
C      14.93      10.54      10.93
C      12.81       9.42      12.56
C      14.95      10.62      12.32
C      12.79       9.35      11.14
C      13.92      10.08      13.09
C      13.81       9.89      10.36
C      15.72      11.12      13.52
C      14.56      10.51      14.40
C      22.14      10.54      10.86
C      24.22       9.39      12.53
C      22.10      10.62      12.25
C      24.26       9.31      11.11
C      23.10      10.06      13.05
C      23.25       9.87      10.31
C      21.31      11.13      13.44
C      22.45      10.50      14.34
C      14.92       4.52      20.42
C      12.94       5.73      18.68
C      13.78       3.83      20.02
C      14.11       6.42      19.10
C      12.83       4.42      19.18
C      15.06       5.83      19.94
C      13.02       2.52      20.12
C      11.95       3.19      19.17
C      18.50       8.20      25.69
C      18.47       9.43      29.09
C      18.49       6.88      26.15
C      18.48      10.73      28.62
C      18.48       8.50      28.03
C      18.50       9.12      26.77
C      24.18      -0.45      28.29
C      22.05       0.67      26.66
C      24.20      -0.52      26.90
C      22.04       0.74      28.09
C      23.17       0.02      26.13
C      23.07       0.21      28.86
C      24.98      -1.02      25.70
C      23.81      -0.40      24.82
C      12.85      -0.45      28.26
C      14.83       0.62      26.43
C      13.98       0.21      28.71
C      13.67      -0.06      25.98
C      14.93       0.72      27.82
C      12.72      -0.58      26.86
C      14.74       0.69      29.94
C      15.81       1.27      28.93
C      17.47       7.44       4.68
C      19.70       5.03       3.15
C      18.57       8.17       5.13
C      18.61       4.30       2.70
C      19.29       6.17       3.86
C      17.89       6.29       3.95
C      12.85      15.47       3.04
C      14.83      14.28       4.79
C      13.98      16.17       3.45
C      13.67      13.58       4.37
C      14.93      15.59       4.30
C      12.72      14.16       3.52
C       5.50       0.09       3.36
C      15.81      16.82       4.32
C      24.19      15.48       3.05
C      22.06      14.49       4.76
C      24.21      14.19       3.58
C      22.05      15.80       4.21
C      23.18      13.72       4.40
C      23.08      16.27       3.39
C      24.99      12.89       3.65
C      23.83      12.36       4.58
S      29.22      12.49      18.78
S      26.26      14.99      20.36
S       9.30       1.66      13.81
S       9.22       0.86       9.70
S      18.47       6.78      27.90
S      18.50      10.84      26.89
S      20.10       7.47       4.67
S      17.08       5.00       3.15
Br      25.69       2.87      18.92
Br      11.38       8.54      10.13
Br      25.65       8.46      10.13
Br      14.52       8.21      18.58
Br      20.64       1.56      29.09
Br      13.25      -0.35      24.13
Br      13.27      11.79       4.89
Br      11.41      -0.34       4.51
O      27.79       7.52      15.69
O      24.97       8.93      14.72
O       9.19       5.52      13.12
O      26.36       5.39      17.57
O      26.30       8.35      12.97
O      25.03       7.23      17.37
O       9.35       4.29      15.04
O      10.92       5.42      17.53
O      28.85      10.14      17.23
O      11.95       7.45      17.37
O      26.56      10.05      17.24
O      10.85       8.16      12.98
O      11.93       9.15      14.72
O      18.53       2.56      23.49
O      21.29       2.73      21.81
O      18.54       5.74      24.11
O      19.99       1.79      26.23
O      20.12       4.67      21.57
O      21.26       1.05      24.49
O      18.44       4.55      26.07
O      16.83       1.82      26.20
O      17.45       0.03      21.81
O      15.84       1.02      24.32
O      19.74      -0.03      21.92
O      16.96       4.67      21.60
O      15.77       2.73      21.69
O      18.54      12.46       7.84
O      16.97      11.68      10.63
O      17.44       9.86       6.27
O      21.27      11.00       8.72
O      15.83      10.95       8.79
O      20.11      11.68      10.57
O      19.73       9.92       6.17
O      21.27      12.69       6.05
O      18.41      15.63       8.48
O      20.00      14.58       5.93
O      18.51      14.40      10.41
O      15.82      12.57       6.10
O      16.85      14.59       5.94
O       9.25      -2.37      31.32
O      10.81      15.30       1.86
O      19.75       2.58       1.60
O      25.11      17.22       1.75
O      12.00      17.24       1.74
O      26.23      15.24       1.90
O      17.46       2.57       1.64
O      25.10      -0.88      30.42
O      18.46      13.06      28.74
O      26.23      -1.58      28.57
O      18.45      11.85      30.68
O      11.99      -0.86      30.41
O      10.81      -1.60      28.61
O      25.30      12.21      18.61
O       9.25       4.12      10.73
O      18.51       8.53      24.37
O      16.19       7.79       4.91
