156

Al       5.84      14.90      17.94
Al       0.94       4.96       5.99
Al       2.45      14.88      17.92
Al       4.33       4.97       5.97
H       1.87      11.91      10.16
H       1.90      12.51      11.72
H       5.38       7.69      14.11
H       4.52       7.51      12.68
H       4.91       7.95      22.11
H       4.87       7.34      23.67
H       1.39      12.17       2.16
H       2.26      12.35       0.73
H       5.25      17.88       1.79
H       5.29      17.27       0.23
H       2.00       2.24      21.75
H       1.13       2.42      23.17
H       1.52       1.98      13.74
H       1.49       2.59      12.19
H       4.78      17.62       9.79
H       5.65      17.44      11.22
H       5.44      12.03       9.87
H       5.37      10.55       9.11
H       2.51       8.85      13.82
H       1.26       8.88      14.89
H       1.33       7.83      21.82
H       1.41       9.31      21.06
H       4.26      11.01       1.87
H       5.51      10.98       2.94
H       2.05      17.76       2.09
H       1.98      19.24       2.84
H       5.90       1.08      22.04
H       4.65       1.05      20.96
H       4.72       2.10      14.04
H       4.80       0.62      14.79
H       0.88      18.78      10.08
H       2.13      18.81       9.01
H       2.23       8.33       9.87
H       3.58      11.35      12.67
H       4.55      11.53      21.83
H       3.20       8.50       0.72
H       5.61       1.60       2.08
H       0.19      18.43      23.19
H       1.16      18.26      14.03
H       6.58       1.42      11.24
H       4.16      13.24      17.39
H       2.62       6.61       5.44
H       0.77      16.54      18.47
H       6.01       3.32       6.52
C       4.15      16.48      16.12
C       2.64       3.44       7.83
C       2.63       3.37       4.17
C       4.14      16.42      19.78
C       0.76      13.30      19.74
C       6.02       6.49       4.13
C       6.02       6.56       7.79
C       0.75      13.36      16.08
C       5.98      10.47      11.04
C       0.72       9.26      12.99
C       0.80       9.39      23.00
C       6.05      10.60       1.03
C       2.59      19.31       0.91
C       4.11       0.67      22.87
C       4.19       0.54      12.86
C       2.67      19.18      10.92
C       0.66      10.92      11.49
C       6.04       8.81      12.56
C       6.12       8.94      23.44
C       0.73      11.05       0.61
C       4.05      18.87       0.46
C       2.66       1.12      23.29
C       2.73       0.99      12.41
C       4.12      18.74      11.34
C       0.69      12.48      14.95
C       6.04       7.39       8.96
C       6.08       7.38       3.00
C       0.73      12.46      20.91
C       4.08      17.31      20.91
C       2.65       2.53       2.99
C       2.69       2.55       8.95
C       4.12      17.32      14.94
C       5.55      10.36      12.55
C       1.11       9.34      11.48
C       1.22       9.49       0.60
C       5.66      10.52      23.43
C       2.17      19.42      23.31
C       4.50       0.59       0.48
C       4.61       0.43      11.36
C       2.27      19.26      12.43
C       0.23      10.80      12.99
C       6.43       8.96      11.04
C       6.54       9.06       1.04
C       0.35      10.90      22.99
C       3.62      18.99      22.87
C       3.04       0.97       0.92
C       3.15       0.87      10.91
C       3.73      18.89      12.87
C       0.51      11.72      14.01
C       6.17       8.08       9.96
C       6.26       8.14       2.06
C       0.61      11.77      21.91
C       3.90      18.06      21.85
C       2.78       1.84       2.00
C       2.88       1.79       9.89
C       3.99      18.01      13.95
C       2.32       8.78      10.89
C       4.34      10.77      13.25
C       4.45      11.07      22.84
C       2.44       9.09       1.29
C       5.71       1.14       1.07
C       0.95      19.01      22.61
C       1.07      18.71      13.02
C       5.83       0.84      10.66
N       1.33      12.05      11.02
N       5.44       7.67      13.09
N       5.44       7.81      22.97
N       1.34      12.18       1.14
N       4.72      17.74       0.94
N       2.05       2.26      22.76
N       2.06       2.12      12.89
N       4.73      17.60      10.81
N       5.21      11.04       9.99
N       1.52       8.62      13.94
N       1.56       8.81      21.95
N       5.25      11.24       1.99
N       1.83      18.74       1.96
N       4.91       1.31      21.91
N       4.95       1.11      13.91
N       1.87      18.54       9.96
O       3.01      16.07      19.31
O       3.77       3.70       4.62
O       3.77       3.79       7.35
O       3.00      16.15      16.57
O       6.39      13.71      16.55
O       0.39       6.23       7.33
O       0.38       6.14       4.60
O       6.39      13.63      19.28
O       5.29      16.18      16.59
O       1.49       3.78       7.39
O       1.49       3.68       4.64
O       5.29      16.08      19.34
O       1.90      13.61      19.27
O       4.88       6.15       4.56
O       4.87       6.25       7.32
O       1.90      13.71      16.51
O       4.15      14.08      17.88
O       2.63       5.77       5.93
O       0.76      15.70      17.98
O       6.02       4.15       6.03
O       3.42       8.82      11.45
O       4.13      10.47      14.42
O       3.36      11.04      23.41
O       2.65       9.39       2.47
O       0.03       1.11       0.50
O       0.74      19.32      21.43
O       6.74      18.75      12.45
O       6.03       0.54       9.48
