196

Zn      14.26       9.64      13.22
Zn      19.73       7.53      13.22
Zn      18.82      13.32      13.22
Zn      10.02       1.92       6.35
Zn       5.46       5.61       6.35
Zn      10.93       7.71       6.35
Zn      17.60      10.16      14.49
Zn       8.80       5.08       5.08
Co      17.60      10.16      17.82
Co       8.80       5.08       1.75
H      10.78       7.77      11.09
H      10.41       9.44      10.70
H       9.96       8.78      12.32
H      16.97      14.99      10.95
H      12.94      14.05       9.69
H      12.89      12.02      11.13
H      14.77       9.38       0.08
H      11.79       9.07      15.57
H      10.88       8.72      17.87
H       5.48       5.45      11.09
H       4.22       4.30      10.70
H       5.02       4.24      12.32
H      13.73       7.20      10.95
H      16.56       4.18       9.69
H      18.35       5.15      11.13
H      19.69       8.10       0.08
H       3.85       5.68      15.57
H       4.61       5.06      17.87
H      10.14       2.02      11.09
H      11.77       1.50      10.70
H      11.42       2.22      12.32
H      22.10       8.29      10.95
H      23.30      12.26       9.69
H      21.56      13.32      11.13
H      18.34      13.01       0.08
H      10.76       0.50      15.57
H      10.92       1.46      17.87
H      18.94      13.22       8.48
H      20.57      13.74       8.87
H      20.22      13.02       7.25
H      13.30       6.95       8.62
H      14.50       2.99       9.88
H      12.76       1.93       8.44
H       9.54       2.24      19.50
H      19.56      14.74       4.00
H      19.72      13.78       1.70
H      19.58       7.47       8.48
H      19.21       5.80       8.87
H      18.76       6.47       7.25
H       8.17       0.25       8.62
H       4.14       1.19       9.88
H       4.09       3.23       8.44
H       5.97       5.86      19.50
H      20.59       6.17       4.00
H      19.68       6.52       1.70
H      14.28       9.79       8.48
H      13.02      10.94       8.87
H      13.82      11.00       7.25
H       4.93       8.04       8.62
H       7.76      11.07       9.88
H       9.55      10.09       8.44
H      10.89       7.14      19.50
H      12.65       9.57       4.00
H      13.41      10.18       1.70
C      12.07       9.18      12.04
C      10.71       8.78      11.52
C      16.03      13.24      11.82
C      14.90      12.40      11.87
C      16.08      14.37      11.00
C      13.79      13.81      10.32
C      13.75      12.68      11.12
C      14.94      14.66      10.24
C      13.79       9.45      16.34
C      14.61       9.56      17.49
C      14.11       9.35      18.78
C      12.76       9.03      18.91
C      12.42       9.14      16.46
C      11.94       8.94      17.74
C       3.62       5.86      12.04
C       4.64       4.88      11.52
C      15.72       7.27      11.82
C      17.02       6.70      11.87
C      14.72       6.74      11.00
C      16.34       5.04      10.32
C      17.34       5.56      11.12
C      15.03       5.61      10.24
C      20.12       7.22      16.34
C      19.62       7.87      17.49
C      20.05       7.55      18.78
C      21.00       6.54      18.91
C      21.07       6.18      16.46
C       3.89       5.87      17.74
C      10.71       0.20      12.04
C      11.05       1.57      11.52
C      21.05       9.98      11.82
C      20.89      11.39      11.87
C      22.01       9.38      11.00
C      22.67      11.63      10.32
C      21.71      12.24      11.12
C      22.82      10.21      10.24
C      18.89      13.82      16.34
C      18.57      13.05      17.49
C      18.64      13.59      18.78
C      19.04      14.92      18.91
C      19.31      15.16      16.46
C      10.58       0.43      17.74
C      19.51      15.04       7.53
C      19.85      13.67       8.05
C      12.25       5.26       7.75
C      12.09       3.86       7.70
C      13.21       5.87       8.57
C      13.87       3.61       9.25
C      12.91       3.00       8.46
C      14.02       5.03       9.33
C      10.09       1.42       3.23
C       9.77       2.19       2.08
C       9.84       1.65       0.79
C      10.24       0.32       0.67
C      10.51       0.09       3.11
C      19.38      14.81       1.83
C      20.87       6.07       7.53
C      19.51       6.46       8.05
C       7.23       2.01       7.75
C       6.09       2.85       7.70
C       7.28       0.87       8.57
C       4.99       1.43       9.25
C       4.95       2.56       8.46
C       6.14       0.58       9.33
C       4.99       5.79       3.23
C       5.81       5.68       2.08
C       5.31       5.89       0.79
C       3.96       6.22       0.67
C       3.62       6.10       3.11
C      20.74       6.30       1.83
C      12.42       9.38       7.53
C      13.44      10.36       8.05
C       6.92       7.97       7.75
C       8.22       8.54       7.70
C       5.92       8.51       8.57
C       7.54      10.21       9.25
C       8.54       9.68       8.46
C       6.23       9.63       9.33
C      11.32       8.02       3.23
C      10.82       7.37       2.08
C      11.25       7.70       0.79
C      12.20       8.70       0.67
C      12.27       9.06       3.11
C      12.69       9.38       1.83
N      15.20      11.38      12.73
N      16.44      11.58      13.18
N      16.96      12.69      12.66
N      14.59       9.67      15.26
N      15.83       9.89      15.71
N      15.88       9.84      17.05
N      17.75       7.47      12.73
N      16.95       8.45      13.18
N      15.73       8.35      12.66
N      19.54       7.80      15.26
N      18.72       8.76      15.71
N      18.74       8.83      17.05
N      19.86      11.63      12.73
N      19.41      10.46      13.18
N      20.11       9.45      12.66
N      18.68      13.02      15.26
N      18.26      11.83      15.71
N      18.18      11.81      17.05
N      11.05       3.61       6.84
N      10.61       4.79       6.39
N      11.31       5.79       6.91
N       9.88       2.22       4.32
N       9.46       3.41       3.86
N       9.38       3.43       2.53
N       6.40       3.86       6.84
N       7.64       3.66       6.39
N       8.16       2.55       6.91
N       5.79       5.58       4.32
N       7.03       5.35       3.86
N       7.08       5.40       2.53
N       8.95       7.77       6.84
N       8.15       6.79       6.39
N       6.93       6.90       6.91
N      10.74       7.44       4.32
N       9.92       6.48       3.86
N       9.94       6.41       2.53
O      12.97       9.61      11.27
O      12.32       9.03      13.31
O      20.39       6.43      11.27
O       3.62       6.15      13.31
O      19.44      14.45      11.27
O      10.46       0.06      13.31
O      10.64       0.79       8.30
O      19.26      15.18       6.27
O       4.17       5.63       8.30
O      21.12       6.21       6.26
O      11.59       8.82       8.30
O      12.42       9.09       6.27
