270

Zn       0.76      16.01       1.53
Zn      11.92      15.89       1.37
Zn       5.33       6.83       4.99
Zn       7.35      10.18       9.35
Zn       2.49       6.69       4.78
Zn      10.19      10.35       9.54
H      11.05      14.55       5.46
H       1.63      11.72       1.77
H       1.24      15.52       5.76
H      11.44      11.68       0.76
H       2.48      15.14       7.73
H      10.20       9.67       0.61
H       1.88      13.84       8.80
H      10.79       8.30       1.60
H       2.19      -2.32       9.21
H      10.49       3.75      17.10
H      11.05      13.80       7.85
H       1.63       9.21       1.88
H      10.85      12.79      11.91
H       1.83       5.03       1.81
H       2.29      13.44      13.05
H      10.39       4.10       0.89
H       1.45      14.62      12.00
H      11.23       5.41       0.02
H       1.76      13.00      11.40
H      10.92       5.57       1.74
H       0.90      12.59      14.81
H      11.77       2.17       1.26
H      10.65      12.06      14.30
H       2.02       2.53       1.90
H       2.90      14.01       1.96
H       9.78      14.96       3.19
H       3.53       0.20       1.02
H       9.15      12.31      16.78
H       6.04       0.28       0.91
H       6.64      12.44      16.73
H       5.40      13.92       1.96
H       7.27      14.93       3.28
H       6.18       2.71       4.88
H       6.50       9.23      13.36
H       1.93       2.33       4.43
H      10.75       9.57      13.85
H       2.15      -0.17       4.51
H      10.53       8.84      16.24
H       6.88      -0.50       6.02
H       5.80       7.30      16.17
H       7.60       0.81       5.05
H       5.08       8.57      15.16
H       7.01      -0.69       4.28
H       5.67       8.94      16.80
H       6.52      14.31       5.43
H       6.15      11.68       2.01
H       6.72      13.06       6.70
H       5.95      10.13       2.89
H       5.70      14.50       6.97
H       6.98      10.24       1.43
H       1.76      13.51       4.22
H      10.92      12.64       3.10
H       1.76      11.01       4.28
H      10.92      11.94       5.50
H       5.65      11.07       6.12
H       7.03      10.18       4.96
H       6.36       7.90       0.95
H       6.32      14.36       9.36
H       2.14       7.25       0.49
H      10.54      14.64      10.10
H       1.64       3.40      15.35
H      11.04      -0.71      10.00
H       7.05       4.20      16.42
H       5.63      -1.54       8.95
H       6.21       5.21      15.21
H       6.47      -0.11       8.29
H       6.58       3.53      14.84
H       6.10      -0.19      10.01
H       1.93       4.15      11.13
H      10.74       3.56      10.36
H       6.69       5.56      12.15
H       5.98       2.94       8.74
H       5.63       6.67      13.00
H       7.05       2.40       7.44
H       6.54       7.23      11.56
H       6.14       3.93       7.27
H       5.62       6.98       9.39
H       7.06       5.97       8.07
H       1.90       4.92       8.75
H      10.77       6.06      10.23
H       7.36       5.08       3.80
H       5.32      10.88      11.35
H       7.54       8.28       6.42
H       5.14       9.17       7.58
H      10.03       8.27       6.41
H       2.65       9.18       7.59
H       9.85       4.92       3.68
H       2.82      10.95      11.54
H      11.80       8.79       4.99
H       0.88      10.69       7.46
H      11.88       4.47       4.81
H       0.80       9.75      11.68
H       0.40       4.61       4.67
H      12.28       9.92      11.58
H       0.33       8.74       4.85
H      12.35      10.81       7.54
C      13.16      15.49       4.03
C      -0.48      13.34       1.23
C      13.13      15.08       5.47
C      -0.46      11.84       1.25
C      11.96      14.60       6.06
C       0.72      11.15       1.57
C       0.33      15.15       6.23
C      12.34      11.12       0.99
C       0.37      14.75       7.57
C      12.31       9.73       1.03
C       1.64      14.82       8.36
C      11.04       8.98       0.76
C      11.96      14.19       7.38
C       0.72       9.77       1.62
C      -0.84      14.27       8.15
C      13.51       9.04       1.35
C      -0.86      13.89       9.51
C      13.54       7.63       1.37
C      -0.91      13.57      10.69
C      13.59       6.41       1.37
C      -1.00      13.16      12.04
C      13.68       5.00       1.42
C      11.72      12.77      12.56
C       0.96       4.39       1.66
C       0.16      13.11      12.85
C      12.52       4.20       1.25
C       1.49      13.56      12.31
C      11.19       4.84       0.96
C       0.03      12.65      14.16
C      12.65       2.82       1.36
C      11.62      12.35      13.88
C       1.06       3.01       1.73
C      12.76      12.27      14.69
C      -0.08       2.21       1.59
C      12.66      11.82      16.11
C       0.02       0.72       1.66
C       3.50      14.89       1.74
C       9.18      15.39       2.40
C       3.49      17.15       1.20
C       9.19      16.50       0.36
C       4.88      17.18       1.13
C       7.80      16.57       0.34
C       4.89      14.85       1.73
C       7.79      15.39       2.44
C       5.60      16.01       1.42
C       7.08      16.00       1.40
C       3.93       4.15       4.65
C       8.75       9.82      12.03
C       4.04       2.66       4.66
C       8.63       9.43      13.47
C       5.30       2.06       4.81
C       7.37       9.13      14.01
C       2.90       1.86       4.55
C       9.78       9.32      14.27
C       3.02       0.47       4.62
C       9.66       8.91      15.59
C       5.45       0.68       4.89
C       7.22       8.69      15.32
C       6.81       0.05       5.07
C       5.87       8.36      15.88
C       4.28      -0.12       4.81
C       8.39       8.57      16.12
C       3.72      16.31       4.93
C       8.96      12.68       0.21
C       3.73      15.09       5.04
C       8.95      12.26       1.36
C       3.72      13.68       5.12
C       8.96      11.81       2.69
C       4.83      13.00       5.68
C       7.85      11.10       3.21
C       6.01      13.75       6.23
C       6.67      10.76       2.35
C       2.60      12.96       4.64
C      10.08      12.10       3.52
C       2.60      11.57       4.67
C      10.08      11.71       4.85
C       4.80      11.61       5.70
C       7.88      10.73       4.55
C       3.71      10.88       5.18
C       8.96      11.04       5.38
C       3.77       9.39       5.13
C       8.91      10.71       6.84
C       4.16       7.17       2.31
C       8.52      12.86       9.71
C       4.25       7.54       0.86
C       8.43      14.35       9.72
C       5.48       7.93       0.31
C       7.20      14.99       9.49
C       3.10       7.56       0.06
C       9.58      15.13       9.92
C       2.53       3.38      15.98
C      10.15      -1.32       9.85
C       4.94       3.78      16.22
C       7.74      -1.46       9.41
C       6.26       4.20      15.65
C       6.42      -0.80       9.15
C       3.76       3.81      15.43
C       8.92      -0.68       9.58
C       3.80       4.27      14.09
C       8.88       0.73       9.48
C       3.80       4.68      12.94
C       8.88       1.95       9.38
C       3.79       5.15      11.60
C       8.88       3.36       9.27
C       2.73       4.78      10.74
C       9.95       4.10       9.85
C       4.85       5.97      11.11
C       7.83       4.04       8.60
C       5.98       6.39      12.00
C       6.69       3.29       7.97
C       4.81       6.37       9.78
C       7.87       5.44       8.57
C       2.72       5.21       9.42
C       9.96       5.49       9.78
C       3.77       5.99       8.92
C       8.91       6.17       9.15
C       3.82       6.37       7.48
C       8.86       7.66       9.16
C       8.00       5.76       4.36
C       4.68      10.52      10.55
C       8.09       7.57       5.81
C       4.59       9.58       8.43
C       9.48       7.56       5.80
C       3.20       9.59       8.44
C       9.38       5.68       4.30
C       3.29      10.55      10.64
C      10.15       6.61       5.01
C       2.52      10.10       9.55
C      11.63       6.62       4.93
C       1.05      10.19       9.57
C      12.33       7.84       4.94
C       0.35      10.49       8.39
C      12.37       5.44       4.82
C       0.31       9.99      10.74
C      -0.22       5.51       4.75
C      12.90      10.07      10.69
C      -0.26       7.82       4.86
C      12.94      10.57       8.43
N       2.82      16.02       1.49
N       9.86      15.93       1.37
N       7.37       6.70       5.09
N       5.31      10.06       9.45
N       0.44       6.68       4.77
N      12.24      10.35       9.56
O      -0.23      11.57      16.73
O      12.91       0.06       1.75
O      11.49      11.74      16.61
O       1.19       0.22       1.61
O      12.07      15.40       3.38
O       0.61      13.95       1.48
O       0.31      15.86       3.54
O      12.37      13.90       0.99
O       5.02       4.80       4.79
O       7.66       9.85      11.36
O       2.77       4.66       4.52
O       9.91      10.07      11.57
O       4.93       8.86       5.16
O       7.74      10.54       7.34
O       2.67       8.76       5.05
O      10.01      10.62       7.47
O       5.26       7.07       2.95
O       7.42      12.21       9.64
O       2.99       7.01       2.80
O       9.69      12.34       9.74
O       4.97       6.67       7.00
O       7.71       8.19       8.99
O       2.73       6.37       6.82
O       9.95       8.30       9.33
