52

Cu       6.46       6.62       6.00
Si       2.56       6.16       5.57
H       4.21       5.81       7.59
H       3.21       6.26       9.81
H       6.63       4.74       1.03
H       9.62       7.70       2.10
H       4.23       8.10       5.00
H       3.24      10.36       5.21
H       6.66       1.55       4.58
H       9.58       2.88       7.50
C       4.79       6.32       8.36
C       4.24       6.55       9.61
C       4.99       7.21      10.59
C       6.30       7.57      10.27
C       6.78       7.31       8.98
C       7.04       5.49       1.70
C       8.25       6.13       1.44
C       8.70       7.16       2.27
C       7.91       7.43       3.38
C       6.35       5.87       2.84
C       4.80       8.92       5.43
C       4.26      10.19       5.52
C       5.01      11.23       6.08
C       6.32      10.94       6.48
C       6.80       9.63       6.36
C       7.05       2.29       5.27
C       8.24       2.08       5.97
C       8.67       3.01       6.92
C       7.90       4.15       7.06
C       6.38       3.48       5.51
N       6.03       6.74       8.04
N       4.46       7.61      11.84
N       8.90       5.69       0.26
N       6.80       6.76       3.73
N       6.05       8.63       5.88
N       4.49      12.52       6.34
N       8.89       0.86       5.67
N       6.82       4.45       6.32
F       4.34       6.09       5.53
F       8.79       6.28       5.66
F       2.61       5.03       6.85
F       2.63       7.30       4.30
F      10.66       7.43       6.70
F       2.42       4.91       4.46
F       8.03       7.65       8.68
F       7.12       8.16      11.16
F       5.14       5.36       3.06
F       8.22       8.48       4.14
F       8.05       9.36       6.73
F       7.15      11.89       6.96
F       5.21       3.67       4.91
F       8.20       5.01       8.03
