408

Zn       4.87      11.81       6.90
Zn      17.79       0.00       6.20
Zn       5.94       0.01      19.30
Zn      -6.99      11.82      20.00
Zn       5.93       0.00       5.16
Zn       5.93       0.00       7.94
Zn       4.87      11.82      21.04
Zn       4.87      11.82      18.25
H       0.03      13.99       6.73
H       1.73      16.08       6.58
H       7.04      16.64       6.57
H       9.14      14.96       6.72
H       4.32      16.87       8.73
H       4.06      19.37       8.73
H       4.07      19.38       4.45
H       4.32      16.88       4.44
H      -0.43      11.36       4.76
H      -2.90      11.14       4.98
H      -3.94      10.97       7.24
H      -2.50      11.00       9.27
H      -0.03      11.20       9.04
H       3.90      13.64      16.13
H       3.85      13.73      13.64
H       6.12      10.04      11.66
H       6.05      10.12       9.19
H       9.70       9.64       6.74
H       8.00       7.55       6.59
H       2.70       6.98       6.57
H       0.59       8.67       6.72
H       5.41       6.76       8.73
H       5.66       4.26       8.73
H       5.66       4.25       4.45
H       5.41       6.75       4.43
H      10.16      12.26       4.77
H      12.63      12.48       4.98
H      13.67      12.66       7.24
H      12.23      12.64       9.27
H       9.76      12.43       9.04
H       5.84      10.00      16.13
H       5.89       9.90      13.64
H       3.62      13.59      11.66
H       3.68      13.51       9.19
H      15.19       4.62       6.37
H      13.26       2.74       6.51
H      13.18      -2.59       6.52
H      12.91      19.09       6.38
H      12.71       0.09       4.37
H      10.20       0.12       4.37
H      10.19       0.11       8.65
H      12.70       0.09       8.66
H      17.76       5.31       8.33
H      17.76       7.79       8.12
H      17.84       8.85       5.86
H      17.94       7.41       3.83
H      17.96       4.93       4.06
H       2.97      12.63      23.17
H       5.01     -10.96      25.65
H      17.53      22.54       1.44
H      19.58      -1.02       3.91
H      18.26      19.01       6.36
H      -1.40      -2.74       6.51
H      -1.31       2.60       6.52
H      -3.18       4.54       6.38
H      -0.84      -0.08       4.37
H       1.67      -0.11       4.37
H       1.68      -0.10       8.65
H      -0.83      -0.08       8.67
H      15.69      18.31       8.33
H      15.69      15.83       8.12
H      15.61      14.78       5.86
H      15.50      16.21       3.83
H      15.48      18.69       4.06
H       6.77      11.02      23.17
H       6.87      10.98      25.65
H      15.91       1.09       1.44
H      16.00       1.03       3.91
H      10.77      -2.16      19.47
H       9.07      -4.25      19.61
H       3.77      -4.82      19.62
H       1.66      -3.13      19.48
H       6.48      -5.05      17.46
H       6.74      -7.54      17.46
H       6.73      -7.56      21.75
H       6.48      -5.06      21.76
H      11.23       0.46      21.43
H      13.70       0.68      21.22
H      14.74       0.85      18.96
H      13.30       0.83      16.93
H      10.83       0.62      17.16
H       6.91      -1.81      10.07
H       6.95      -1.91      12.55
H       4.68       1.78      14.53
H       4.75       1.70      17.01
H       1.10       2.18      19.46
H       2.80       4.27      19.61
H       8.11       4.84      19.62
H      10.21       3.15      19.48
H       5.39       5.07      17.47
H       5.14       7.56      17.47
H       5.15       7.57      21.75
H       5.39       5.07      21.76
H       0.64      -0.44      21.43
H      -1.83      -0.66      21.22
H      -2.87      -0.83      18.96
H      -1.43      -0.81      16.93
H       1.04      -0.61      17.16
H       4.96       1.82      10.07
H       4.91       1.92      12.55
H       7.19      -1.77      14.53
H       7.12      -1.68      17.01
H      -4.39       7.20      19.83
H      -2.46       9.08      19.68
H      -2.37      14.42      19.67
H      -2.11      -7.26      19.82
H      -1.90      11.73      21.83
H       0.61      11.70      21.83
H       0.62      11.71      17.55
H      -1.90      11.74      17.53
H      -6.96       6.51      17.86
H      -6.96       4.03      18.08
H      -7.04       2.98      20.33
H      -7.14       4.41      22.37
H      -7.16       6.89      22.14
H       7.83      -0.80       3.03
H       5.79      22.78       0.55
H      -6.73     -10.71      24.76
H      -8.78      12.85      22.29
H      -7.45      -7.18      19.84
H      12.20      14.56      19.68
H      12.11       9.23      19.67
H      13.98       7.29      19.82
H      11.64      11.91      21.83
H       9.14      11.94      21.83
H       9.12      11.93      17.54
H      11.64      11.91      17.53
H      -4.88      -6.49      17.86
H      -4.89      -4.01      18.08
H      -4.81      -2.95      20.33
H      -4.70      -4.39      22.37
H      -4.68      -6.87      22.14
H       4.03       0.81       3.03
H       3.93       0.85       0.55
H      -5.11      10.74      24.76
H      -5.20      10.79      22.28
C       1.93      12.76       6.71
C       1.12      13.96       6.70
C       1.98      15.02       6.63
C       3.32      14.47       6.61
C       4.50      15.24       6.59
C       5.82      14.74       6.61
C       7.02      15.56       6.62
C       8.08      14.71       6.69
C       7.54      13.36       6.71
C       1.42      11.45       6.77
C       4.34      16.72       6.58
C       4.26      17.43       7.79
C       4.12      18.81       7.80
C       4.06      19.52       6.59
C       4.13      18.82       5.38
C       4.27      17.43       5.38
C       6.08      -2.61       6.60
C      -0.07      11.30       6.89
C      -0.89      11.28       5.75
C      -2.27      11.16       5.87
C      -2.86      11.06       7.14
C      -2.05      11.08       8.28
C      -0.66      11.19       8.15
C       4.32      12.84      15.52
C       4.30      12.87      14.13
C       5.55      10.84      11.18
C       5.52      10.87       9.79
C       7.81      10.87       6.72
C       8.61       9.67       6.71
C       7.75       8.61       6.63
C       6.41       9.15       6.61
C       5.23       8.39       6.59
C       3.91       8.89       6.61
C       2.72       8.07       6.62
C       1.65       8.92       6.69
C       2.19      10.27       6.71
C       8.31      12.18       6.77
C       5.39       6.91       6.58
C       5.47       6.20       7.79
C       5.60       4.82       7.80
C       5.67       4.11       6.59
C       5.60       4.81       5.38
C       5.46       6.20       5.37
C       5.78       2.62       6.60
C       9.80      12.33       6.89
C      10.62      12.35       5.75
C      12.00      12.47       5.87
C      12.59      12.57       7.14
C      11.78      12.56       8.28
C      10.40      12.44       8.15
C       5.42      10.80      15.52
C       5.43      10.76      14.13
C       4.18      12.80      11.17
C       4.21      12.76       9.79
C      16.59       2.84       6.39
C      15.32       3.54       6.40
C      14.34       2.59       6.47
C      15.00       1.30       6.49
C      14.35       0.05       6.51
C      14.96      -1.21       6.48
C      14.26      -2.48       6.48
C      13.07      20.16       6.41
C      16.49      -2.80       6.38
C      17.85       3.47       6.33
C      12.86       0.08       6.51
C      12.15       0.10       5.30
C      10.76       0.11       5.30
C      10.05       0.11       6.51
C      10.75       0.11       7.72
C      12.15       0.09       7.72
C       8.55       0.09       6.50
C      17.86       4.96       6.21
C      17.81       5.78       7.35
C      17.80       7.17       7.22
C      17.85       7.76       5.96
C      17.91       6.96       4.82
C      17.91       5.56       4.95
C       3.81      12.28      23.77
C       5.91     -11.33      25.16
C      18.83      -0.60       1.92
C      18.79      -0.57       3.31
C      19.00      -2.84       6.38
C      18.13      20.08       6.39
C      -2.47      -2.58       6.47
C      20.58      -1.30       6.49
C      -2.48      -0.05       6.51
C      20.62       1.21       6.49
C      -2.39       2.48       6.48
C      20.38       3.46       6.40
C      19.09       2.81       6.38
C      15.60      20.16       6.33
C      -0.99      -0.08       6.52
C      -0.29      -0.09       5.31
C       1.11      -0.10       5.30
C       1.81      -0.10       6.51
C       1.11      -0.10       7.72
C      -0.28      -0.09       7.72
C       3.31      -0.09       6.50
C      15.59      18.66       6.21
C      15.64      17.85       7.35
C      15.65      16.46       7.22
C      15.60      15.86       5.96
C      15.54      16.67       4.82
C      15.53      18.06       4.95
C       5.94      11.37      23.77
C       5.97      11.35      25.16
C      16.75       0.59       1.92
C      16.79       0.57       3.31
C       8.88      -0.93      19.48
C       9.68      -2.14      19.50
C       8.82      -3.20      19.57
C       7.48      -2.65      19.58
C       6.30      -3.41      19.61
C       4.98      -2.92      19.58
C       3.79      -3.74      19.57
C       2.72      -2.88      19.50
C       3.26      -1.54      19.48
C       9.38       0.38      19.43
C       6.46      -4.90      19.61
C       6.54      -5.60      18.40
C       6.68      -6.99      18.40
C       6.74      -7.69      19.61
C       6.68      -6.99      20.82
C       6.54      -5.61      20.82
C       4.72      14.44      19.60
C      10.87       0.53      19.31
C      11.69       0.54      20.45
C      13.07       0.66      20.32
C      13.66       0.76      19.06
C      12.85       0.75      17.92
C      11.47       0.63      18.04
C       6.48      -1.01      10.68
C       6.50      -1.05      12.06
C       5.25       0.99      15.02
C       5.28       0.95      16.41
C       3.00       0.95      19.48
C       2.19       2.16      19.49
C       3.05       3.22      19.56
C       4.39       2.67      19.58
C       5.57       3.43      19.61
C       6.89       2.93      19.59
C       8.09       3.76      19.58
C       9.15       2.90      19.50
C       8.61       1.55      19.48
C       2.49      -0.36      19.43
C       5.41       4.92      19.62
C       5.34       5.62      18.40
C       5.20       7.00      18.40
C       5.14       7.71      19.61
C       5.20       7.01      20.82
C       5.34       5.62      20.82
C       5.02       9.20      19.60
C       1.00      -0.51      19.31
C       0.18      -0.52      20.44
C      -1.20      -0.64      20.32
C      -1.79      -0.74      19.06
C      -0.98      -0.73      17.92
C       0.41      -0.62      18.04
C       5.38       1.02      10.67
C       5.37       1.06      12.06
C       6.62      -0.97      15.02
C       6.60      -0.94      16.41
C      -5.78       8.98      19.81
C      -4.51       8.28      19.80
C      -3.54       9.24      19.73
C      -4.20      10.52      19.71
C      -3.55      11.77      19.69
C      -4.16      13.04      19.71
C      -3.45      14.30      19.72
C      -2.26      -8.34      19.79
C      -5.69      14.63      19.81
C      -7.05       8.36      19.86
C      -2.06      11.74      19.68
C      -1.35      11.73      20.89
C       0.04      11.71      20.90
C       0.75      11.71      19.69
C       0.05      11.72      18.48
C      -1.34      11.73      18.47
C       2.25      11.73      19.70
C      -7.06       6.86      19.99
C      -7.00       6.05      18.85
C      -7.00       4.65      18.97
C      -7.04       4.06      20.24
C      -7.10       4.87      21.38
C      -7.11       6.26      21.25
C       6.99      -0.45       2.42
C       4.89      23.15       1.03
C      -8.02      12.42      24.27
C      -7.99      12.39      22.88
C      -8.20      14.67      19.82
C      -7.33      -8.26      19.81
C      13.27      14.41      19.73
C      -9.78      13.12      19.71
C      13.29      11.88      19.69
C      -9.82      10.61      19.71
C      13.19       9.34      19.72
C      -9.58       8.36      19.79
C      -8.29       9.02      19.81
C      -4.80      -8.33      19.87
C      11.80      11.90      19.68
C      11.09      11.91      20.89
C       9.70      11.93      20.89
C       8.99      11.93      19.69
C       9.69      11.92      18.47
C      11.08      11.91      18.47
C       7.49      11.91      19.69
C      -4.78      -6.84      19.99
C      -4.84      -6.02      18.85
C      -4.85      -4.63      18.97
C      -4.80      -4.04      20.24
C      -4.74      -4.85      21.38
C      -4.73      -6.24      21.25
C       4.87       0.46       2.42
C       4.83       0.47       1.04
C      -5.95      11.23      24.27
C      -5.99      11.25      22.88
C       4.87      11.82      13.40
C       4.87      11.82      11.91
C       4.87      11.82      25.90
C      17.79      -0.00       1.19
C       5.94       0.01      12.80
C       5.93       0.01      14.28
C       5.93       0.00       0.30
C      -6.99      11.82      25.01
N       3.26      13.10       6.66
N       6.17      13.41       6.66
N       6.47      10.53       6.66
N       3.56      10.22       6.66
N      16.37       1.49       6.44
N      16.32      -1.44       6.44
N      19.22      -1.48       6.43
N      19.27       1.44       6.44
N       7.54      -1.28      19.54
N       4.63      -1.59      19.54
N       4.33       1.30      19.53
N       7.24       1.61      19.54
N      -5.56      10.34      19.76
N      -5.52      13.26      19.76
N      -8.42      13.31      19.76
N      -8.46      10.38      19.76
N       4.87      11.82      16.20
N       4.86      11.81       9.10
N       4.87      11.82      23.09
N      17.79       0.00       4.00
N       5.93       0.01       9.99
N       5.94       0.01      17.10
N       5.93       0.00       3.11
N      -6.99      11.82      22.20
O       6.02      -2.03       5.47
O       6.06      -2.04       7.74
O       5.84       2.04       5.47
O       5.81       2.05       7.73
O       7.97       0.10       7.63
O       7.98       0.06       5.36
O       3.90      -0.09       7.63
O       3.88      -0.06       5.36
O       4.79      13.86      20.73
O       4.74      13.87      18.46
O       4.96       9.78      20.73
O       5.00       9.77      18.46
O       2.84      11.72      18.57
O       2.82      11.76      20.84
O       6.91      11.92      18.56
O       6.92      11.88      20.83
