156

Al       1.62      13.70      19.27
Al       4.96       4.60       6.49
Al       4.93      13.72      19.32
Al       1.65       4.53       6.38
H       4.85       9.28      11.15
H       1.80       8.94      14.61
H       1.54      -0.14       1.71
H       5.11      18.47      23.98
H       4.77      10.74      13.17
H       1.88       7.49      12.59
H       1.46      16.67      25.42
H       5.19       1.65       0.27
H       4.19       6.49       1.92
H       2.44      11.79      23.90
H       0.88       2.65      10.94
H       5.75      15.62      14.70
H       2.61      10.14       3.23
H       4.96       7.20      23.59
H       5.92      -1.01       9.64
H       1.65      20.22      15.01
H       4.62      12.80       2.20
H       1.97       5.42      23.46
H       1.31      19.91      10.66
H       5.28      -1.57      15.13
H       4.28      14.09       0.20
H       2.34       4.18      25.51
H       0.97      18.62      12.66
H       5.65      -0.33      13.08
H       3.29      11.98      18.96
H       3.23       6.22       7.01
H       6.60      15.44      19.64
H       6.55       2.92       5.85
C       3.26      15.16      21.23
C       3.34       3.17       4.46
C       6.58      12.25      17.37
C       0.03       5.97       8.41
C       3.28      15.43      17.60
C       3.31       2.77       8.05
C       6.59      11.98      21.00
C       6.62       6.37       4.82
C       5.58       7.41       2.78
C       1.01      10.93      23.05
C       2.27       1.72      10.08
C       4.32      16.49      15.54
C       5.50       8.50       1.85
C       1.12       9.80      23.93
C       2.19       0.64      11.01
C       4.43      17.62      14.67
C       6.47       9.52       1.79
C       0.17       8.75      23.91
C       3.16      -0.38      11.07
C       3.48      18.67      14.68
C       0.92       9.47       2.71
C       5.75       8.82      22.99
C       4.23      -0.33      10.16
C       2.44      18.60      15.61
C       0.89       8.49       3.74
C       5.71       9.88      22.06
C       4.20       0.64       9.13
C       2.40      17.53      16.54
C       6.57       7.47       3.79
C       0.01      10.92      22.05
C       3.26       1.67       9.08
C       3.32      16.50      16.54
C       5.77      11.81       1.09
C       0.83       6.42      24.59
C       2.46      20.89      11.78
C       4.14      -2.57      14.01
C       5.88      12.92       0.23
C       0.73       5.32      25.45
C       2.56      19.78      12.63
C       4.04      -1.47      13.15
C       0.12       7.60      24.85
C       6.49      10.64       0.83
C       3.43      19.82      13.75
C       3.18      -1.50      12.04
C       5.58      10.03      13.04
C       1.07       8.20      12.73
C       2.27      17.39      25.56
C       4.38       0.94       0.14
C       6.59       9.94      14.02
C       0.06       8.29      11.74
C       3.28      17.48      24.57
C       3.37       0.85       1.12
C       1.02       9.01      13.85
C       5.63       9.21      11.92
C       4.34      18.40      24.75
C       2.31      -0.08       0.95
C       6.56      10.76      15.17
C       0.09       7.47      10.59
C       3.25      16.66      23.42
C       3.40       1.67       2.27
C       0.09       6.77       9.60
C       6.55      11.45      16.17
C       3.40       2.37       3.27
C       3.24      15.97      22.42
N       4.38       8.53       0.95
N       2.26       9.74      24.79
N       1.07       0.61      11.91
N       5.57      17.68      13.81
N       1.85       8.66       4.84
N       4.63       9.83      21.05
N       5.16       0.48       8.03
N       1.32      17.59      17.55
O       4.40      15.08      18.07
O       2.20       3.09       7.53
O       1.09      12.34      20.53
O       5.51       6.05       5.33
O       2.14      14.85      20.72
O       4.45       3.51       4.99
O       5.45      12.57      17.87
O       1.14       5.63       7.87
O       2.13      15.02      17.95
O       4.44       3.27       7.80
O       5.44      12.40      20.65
O       1.13       5.87       5.06
O       1.10      12.57      17.81
O       5.49       5.67       7.99
O       4.41      14.85      20.78
O       2.18       3.47       4.88
O       3.28      12.90      19.24
O       3.29       5.38       6.53
O       6.59      14.51      19.36
O       6.60       3.76       6.34
O       4.76       6.36       2.74
O       1.80      11.99      23.14
O       1.45       2.78      10.13
O       5.11      15.43      15.46
O       3.71       7.47       0.76
O       4.06       9.59       0.39
O       2.57       8.66      25.34
O       2.97      10.78      24.96
O       0.40       1.67      12.10
O       0.75      -0.45      12.47
O       5.88      18.76      13.26
O       6.28      16.64      13.63
O       1.88      10.40       2.60
O       4.77       7.88      22.91
O       5.19      -1.26      10.27
O       1.46      19.54      15.69
O       2.99       9.09       4.53
O       1.49       8.41       5.99
O       4.96       9.58      19.89
O       3.48      10.01      21.46
O       6.30       0.05       8.34
O       4.80       0.73       6.88
O       1.65      17.83      18.71
O       0.17      17.41      17.14
O       4.97      11.88       2.19
O       1.64       6.35      23.49
O       1.66      20.83      10.68
O       4.95      -2.50      15.11
O       5.19      14.06       0.60
O       1.43       4.18      25.10
O       1.88      18.64      12.27
O       4.74      -0.33      13.49
