102

Zn       7.94       0.01      19.31
Zn       9.24       9.25      18.00
Zn       0.00      -0.00       1.31
Zn       9.24       1.30       0.00
Zn      -7.94       0.01      19.31
Zn       9.24      17.18       0.00
C       9.24       2.57      19.31
C       9.24       0.00      10.93
C       9.24       0.00       8.38
C      -0.00       9.25       8.38
C       0.00       9.24      10.93
C       0.00       9.25       2.57
C       9.24      -0.00       2.58
C       9.24       0.00      16.73
C      11.81       0.00       0.00
C       0.00       9.25      16.73
C       9.24       4.01      19.31
C      13.25       0.00       0.00
C       0.00       5.23       0.00
C      -4.01       9.25      19.31
C      18.48       6.67       0.00
C       9.24       5.23      19.31
C      14.47      18.48       0.00
C       0.00       4.02       0.00
C      -5.23      -9.24      19.31
C      -2.57       9.25      19.31
C       0.48      10.36       4.78
C      10.35      -0.48       4.79
C      -0.48       8.13       4.78
C       8.12       0.48       4.78
C       9.71      -1.11      14.52
C       1.12       9.73      14.52
C       8.76       1.12      14.52
C      -1.11       8.76      14.52
C       0.50      10.35       6.19
C      10.35      -0.50       6.19
C      -0.50       8.14       6.19
C       8.13       0.50       6.19
C       9.74      -1.11      13.12
C       1.11       9.75      13.12
C       8.74       1.11      13.12
C      -1.10       8.74      13.12
C      -0.00       9.25       6.89
C       9.24       0.00       6.89
C       9.24       0.00      12.42
C       0.00       9.24      12.42
C      -6.66       9.25      19.31
C       9.24       6.67      19.31
C      15.90      -0.00       0.00
C       0.00       2.58       0.00
C       0.00       9.25       4.08
C       9.24      -0.00       4.09
C       9.24       0.00      15.22
C       0.00       9.25      15.22
Br       1.06      11.88       3.81
Br      11.86      -1.07       3.81
Br      -1.06       6.62       3.81
Br       6.61       1.06       3.81
Br      10.30      -2.63      15.50
Br       2.63      10.31      15.50
Br       8.18       2.63      15.50
Br      -2.62       8.18      15.50
Br       1.24      11.80       7.15
Br      11.79      -1.25       7.15
Br      -1.24       6.69       7.15
Br       6.69       1.25       7.15
Br      10.48      -2.55      12.16
Br       2.56      10.49      12.16
Br       8.00       2.56      12.16
Br      -2.55       7.99      12.16
N      -0.85      10.09       8.99
N       8.39      -0.85       8.99
N       0.85       8.40       8.99
N      10.09       0.85       8.99
N       8.39      -0.85      10.32
N      -0.85      10.09      10.32
N      10.09       0.85      10.32
N       0.85       8.40      10.31
O       8.11       2.01      19.13
O       2.00      -8.10      19.14
O      -8.11      -2.00      19.14
O      -2.01       8.11      19.13
O      17.35       7.24       0.18
O      11.25      17.35       0.18
O       1.13      11.25       0.17
O       7.24       1.13       0.17
O      17.37       9.45       2.01
O       9.45       1.12       2.01
O       1.12       9.04       2.01
O       9.04      17.36       2.01
O       8.12      -0.20      17.30
O       0.21       8.13      17.30
O      -8.13       0.21      17.30
O      -0.21      -8.11      17.30
O       2.02      -0.00       1.15
O      -0.00      16.47       1.15
O      16.47       0.00       1.15
O       0.00       2.02       1.15
O      -7.23       9.25      18.16
O       9.23      -7.22      18.16
O       7.22       9.24      18.16
O       9.24       7.23      18.16
