140

Zn       4.34       5.52      11.23
Zn      -1.44       1.42       6.11
Zn      -1.44       5.65       2.72
Zn       4.34       9.75       7.84
H      -4.68       4.96      10.16
H       7.58       2.35       6.89
H       7.58       6.22       3.80
H      -4.68       8.83       7.06
H      -2.33       5.04      10.96
H       5.24       1.58       6.64
H       5.24       6.13       2.99
H      -2.33       9.60       7.31
H       0.60       9.34       0.88
H       2.31      12.35       4.65
H       2.31       1.84      13.07
H       0.60      -1.18       9.31
H      -6.17       6.06      13.85
H       9.08      -1.02       5.01
H       9.08       5.11       0.10
H      -6.17      12.19       8.94
H      -0.43       5.47      11.67
H       3.34       0.98       6.07
H       3.34       5.71       2.29
H      -0.43      10.19       7.88
H       6.38       9.11       1.24
H      -3.47      11.96       4.79
H      -3.47       2.07      12.71
H       6.38      -0.78       9.16
H       5.85      11.06       5.43
H      -2.94       8.29       1.97
H      -2.94       0.11       8.52
H       5.85       2.89      11.98
H       5.89      10.80       2.95
H      -2.98      10.66       2.77
H      -2.98       0.38      11.00
H       5.89       0.52      11.18
H       2.57       8.06       3.33
H       0.34       9.69       5.36
H       0.34       3.12      10.62
H       2.57       1.49       8.59
H       2.71       8.39       5.83
H       0.19       7.32       4.49
H       0.19       2.79       8.12
H       2.71       3.86       9.46
C      -4.45       5.23      11.19
C       7.35       1.40       6.41
C       7.35       5.95       2.76
C      -4.45       9.78       7.54
C      -3.14       5.29      11.65
C       6.05       0.96       6.25
C       6.05       5.89       2.30
C      -3.14      10.21       7.70
C      -2.89       5.65      12.98
C       5.80      -0.26       5.60
C       5.80       5.52       0.97
C      -2.89      11.43       8.35
C      -4.00       5.94      13.79
C       6.91      -0.99       5.15
C       6.91       5.24       0.16
C      -4.00      12.16       8.81
C      -5.28       5.85      13.26
C       8.19      -0.49       5.35
C       8.19       5.33       0.69
C      -5.28      11.66       8.60
C      -1.52       5.73      13.54
C       4.43      -0.79       5.40
C       4.43       5.44       0.41
C      -1.52      11.97       8.55
C      -0.38       5.61      12.74
C       3.29      -0.04       5.69
C       3.29       5.56       1.21
C      -0.38      11.21       8.26
C       0.88       5.69      13.34
C       2.03      -0.60       5.49
C       2.03       5.49       0.61
C       0.88      11.78       8.46
C       5.40       9.05       0.76
C      -2.50      12.41       4.95
C      -2.50       2.12      13.19
C       5.40      -1.24       9.00
C       4.21       9.17       1.48
C      -1.30      11.73       4.68
C      -1.30       2.01      12.47
C       4.21      -0.55       9.27
C       5.15      10.38       4.93
C      -2.25       8.63       2.74
C      -2.25       0.79       9.02
C       5.15       2.54      11.21
C       5.17      10.23       3.55
C      -2.26       9.95       3.19
C      -2.26       0.94      10.40
C       5.17       1.23      10.76
C       4.24       9.38       2.95
C      -1.33      10.35       4.15
C      -1.33       1.79      11.01
C       4.24       0.83       9.80
C       3.31       8.72       3.77
C      -0.41       9.40       4.62
C      -0.41       2.46      10.18
C       3.31       1.77       9.33
C       3.39       8.90       5.14
C      -0.48       8.10       4.14
C      -0.48       2.27       8.81
C       3.39       3.07       9.81
C       2.12       5.51      12.51
C       0.78       0.17       5.85
C       0.78       5.67       1.44
C       2.12      11.01       8.10
C       4.29       8.12      10.14
C      -1.39       3.06       3.81
C       4.56       7.15       8.93
C      -1.65       4.02       5.02
N      -5.50       5.50      11.98
N       8.41       0.68       5.97
N       8.41       5.68       1.97
N      -5.50      10.49       7.98
N       3.00       9.05       0.92
N      -0.09      12.25       4.92
N      -0.09       2.13      13.03
N       3.00      -1.08       9.03
N       4.29       9.72       5.72
N      -1.38       7.72       3.22
N      -1.38       1.45       8.24
N       4.29       3.45      10.74
O       2.00       5.40      11.26
O       0.91       1.37       6.22
O       0.91       5.77       2.69
O       2.00       9.81       7.73
O       3.25       5.47      13.12
O      -0.34      -0.44       5.75
O      -0.34       5.71       0.83
O       3.25      11.61       8.20
O       4.21       7.60      11.29
O      -1.30       1.82       4.07
O      -1.30       3.58       2.66
O       4.21       9.36       9.88
O       4.66       5.92       9.19
O      -1.76       3.50       6.17
O      -1.76       5.26       4.76
O       4.66       7.68       7.78
