186

Zn      -3.16      11.85       7.45
Zn      11.05      -1.63       9.69
Zn      12.40       0.19       7.62
Zn      -4.59       9.93       9.86
Zn      -1.58      10.67       9.86
Zn       9.11      -0.19       7.62
Zn      10.46       1.63       9.69
Zn      -3.01       8.76       7.45
H      18.08       8.17       0.83
H      11.22      13.32       9.71
H       9.83      -3.72      12.00
H      12.98       2.82       6.26
H      14.06       1.95       5.30
H      -7.34       8.91       8.39
H      -7.89       9.60       9.81
H       1.18      11.70       8.39
H       1.72      11.00       9.81
H       8.53      -2.82       6.26
H       7.45      -1.95       5.30
H      12.81       2.94      11.04
H      -2.74      12.43       0.83
H      11.68       3.73      12.00
H      -3.20       5.82       8.92
H      -2.38       5.50       7.49
H      11.54      -2.01      16.28
H       5.10       5.50      10.54
H       1.88       4.27       7.59
H       5.02      -9.36      16.47
H       8.60       0.17       1.03
H       9.98       2.01      16.28
H      16.41      -5.50      10.54
H      -1.87      -4.27       7.59
H      -5.02       9.36      16.47
H      12.91      -0.17       1.03
H       3.86       3.84       6.76
H       4.12       7.28       9.72
H      17.65      -3.83       6.76
H      -3.37       8.18       3.31
H      10.03       2.02      13.80
H      14.40      -4.05      10.51
H      -6.08      14.83       7.55
H      -5.04       9.42      13.99
H      12.90      -0.12       3.50
H       5.84       2.33       6.79
H       2.11       8.73       9.76
H      15.68      -2.33       6.79
H      -8.28      11.88       9.76
H      -2.80      12.43       3.31
H      11.48      -2.02      13.80
H       7.11       4.05      10.51
H      -0.09       5.78       7.54
H      -1.13      11.19      13.99
H       8.61       0.12       3.50
H       3.15      12.26      11.24
H       5.13      -2.64       5.06
H      11.67       6.15      12.25
H      -3.17       3.77       6.07
H      -3.00      16.83       6.07
H       9.84      -6.15      12.25
H      16.38       2.64       5.06
H      -9.32       8.35      11.24
H      -2.97      14.79       8.92
H      -3.79      15.11       7.49
H       8.69      -2.94      11.04
C      -3.09      10.30       0.64
C      -9.32      14.94       8.65
C      -3.09      10.30      12.35
C      -0.32       8.24       8.65
C       7.79       2.21       8.65
C      10.76       0.00      12.16
C      -3.08      10.30       4.95
C      10.76       0.00       5.15
C      -5.85      12.36       8.65
C      13.72      -2.21       8.65
C      -3.26       9.11       1.37
C      10.34       1.13      15.74
C      16.24      -4.83       9.70
C      -8.12      15.35       8.04
C      -4.18       9.79      15.94
C      11.96      -0.08       1.56
C       4.56       3.87       7.60
C      10.76       0.00      16.47
C       3.19       6.93       9.26
C      16.96      -3.87       7.60
C      -9.36      13.68       9.26
C      -2.91      11.50       1.37
C      11.17      -1.13      15.74
C       5.27       4.83       9.70
C       1.95       5.26       8.04
C      -1.99      10.81      15.94
C       9.55       0.08       1.56
C       4.33       4.78       8.65
C       3.15       5.66       8.65
C      -3.24       9.10       2.76
C      10.35       1.14      14.36
C      15.12      -4.01       9.70
C      -7.01      14.51       8.03
C      -4.19       9.81      14.55
C      -3.08      10.30      16.66
C      11.96      -0.06       2.95
C       5.67       3.03       7.60
C       2.07       7.75       9.27
C      15.85      -3.03       7.61
C      -8.24      12.85       9.27
C      -2.93      11.50       2.76
C      11.16      -1.14      14.36
C       6.39       4.00       9.70
C       0.84       6.10       8.03
C      -1.98      10.80      14.55
C      10.76       0.00       0.84
C       9.55       0.06       2.95
C      -3.09      10.30       3.46
C      10.76       0.00      13.65
C      14.91      -3.10       8.65
C      -7.05      13.26       8.65
C      -3.08      10.30      13.84
C      10.76       0.00       3.66
C       6.60       3.10       8.65
C       0.88       7.35       8.65
C      17.18      -4.78       8.65
C      -1.83      15.69       7.46
C       8.74      -5.00      10.81
C      14.97       3.36       6.49
C      -7.89       7.56       9.85
C       1.72      13.05       9.85
C       6.54      -3.36       6.49
C      12.77       5.00      10.81
C      -4.34       4.91       7.46
C      -2.00      16.65       6.47
C       9.20      -6.19      11.37
C      16.24       3.27       5.94
C      -8.86       7.45      10.83
C       2.69      13.16      10.83
C       5.27      -3.27       5.94
C      12.31       6.19      11.37
C      -4.17       3.96       6.47
C       6.69      -4.14       7.70
C       1.13      14.26       9.34
C      -5.66       5.13       7.97
C      13.55       5.08       9.60
C       7.96      -5.08       9.60
C      -0.51      15.48       7.97
C      -7.30       6.35       9.34
C      14.82       4.14       7.70
C      -5.17       7.50       8.65
C      12.88       2.85       8.65
C       8.63      -2.85       8.65
C      -1.00      13.10       8.65
C       7.75      -4.04       8.65
C      -0.10      14.31       8.65
C      -6.07       6.30       8.65
C      13.76       4.04       8.65
N      -2.89      14.90       7.91
N       8.97      -3.81      11.48
N      13.89       2.80       5.82
N      -7.43       8.80       9.40
N       1.26      11.81       9.40
N       7.62      -2.80       5.82
N      12.54       3.81      11.48
N      -3.28       5.71       7.91
O      -3.08      10.30       8.65
O      13.40       1.71       8.38
O       8.11      -1.71       8.38
O      -1.44      12.69       9.78
O      -4.90       8.04       7.53
O      11.63       3.02       8.93
O       9.88      -3.02       8.92
O      -1.27      12.56       7.53
O      -4.73       7.92       9.78
O      10.76       0.00       8.65
O      -5.95      11.29       9.33
O      13.63      -1.35       7.71
O       9.66      -0.32       5.72
O      -1.95      10.40      11.78
O      -1.32       7.85       7.97
O       8.64       2.37       9.60
O      10.76      -1.14      11.58
O      -3.32      11.42       5.53
O      10.75       1.14      11.58
O      -2.85       9.19       5.53
O      -0.22       9.32       9.33
O       7.88       1.35       7.71
O      11.85       0.32       5.72
O      -4.22      10.21      11.78
O      -4.85      12.76       7.97
O      12.87      -2.37       9.59
