228

Cu      21.95       6.85       4.79
Cu      24.09       6.92       7.09
Cu      22.05       4.49       6.93
Cu      25.06      24.03      25.70
Cu      27.51      23.72      23.69
Cu      25.99      26.48      23.96
Cu       7.05       6.91      25.36
Cu       4.67       6.49      23.35
Cu       7.09       4.43      23.39
Cu       8.33      22.30       4.16
Cu       6.42      21.87       6.63
Cu       8.62      24.15       6.76
H      23.13       9.10       2.84
H      25.90       9.33       6.16
H      19.62       2.71       5.91
H      19.38       6.04       3.15
H      25.84       6.08       9.56
H      23.31       2.58       9.17
H      25.55      21.51      27.57
H      28.84      21.08      24.79
H      24.07      28.74      25.12
H      22.41      25.22      27.02
H      29.25      24.29      21.07
H      27.47      28.18      21.74
H       6.21       9.67      26.71
H       2.66       8.73      24.41
H       9.33       2.63      24.75
H       9.24       6.01      27.47
H       2.95       5.29      20.96
H       6.42       2.70      20.81
H       7.19      20.07       2.16
H       4.79      19.32       5.69
H      10.97      26.08       5.82
H      10.51      23.61       2.29
H       4.59      22.73       9.06
H       7.77      25.64       9.43
H      26.24       0.51      15.28
H       4.74      28.34      16.19
H       1.01       3.18      14.86
H       3.30      29.32      12.24
H      29.07      14.53       3.01
H       3.28      16.36      29.42
H      26.33      14.88       0.29
H      28.80      11.75       0.20
H      13.61       2.97       0.48
H      16.09      28.79      29.66
H      13.73       0.20       3.28
H      16.56       0.29       0.56
H      27.22      10.87       4.76
H      28.64      12.16       3.28
H      25.21      10.86       2.43
H      26.09      12.89       1.72
H      29.72      19.32      26.39
H       2.52      17.70      27.96
H      27.23      19.46      28.19
H      27.66      17.45      28.94
H       4.98      11.95      27.20
H       2.03      12.31      28.10
H       2.30      10.62      26.47
H       4.48      14.10      28.63
H       4.26      17.19       4.62
H       3.00      15.48       3.63
H       5.12      18.16       1.83
H       3.34      16.84       0.89
H      17.53       4.78       2.04
H      16.09       3.33       0.72
H      17.70       2.40       3.97
H      15.59       1.78       3.33
H      12.20      25.17       1.19
H      13.75      26.72       0.17
H      12.63      26.78       3.78
H      14.53      27.49       3.05
H      20.37      26.75      27.58
H      20.31      29.71      28.53
H      22.07      29.26      27.01
H      18.26      27.45      28.94
H      10.84       1.51      26.50
H      14.79      29.62      28.18
H      10.92       4.04      28.26
H      12.80       3.42      29.08
H      27.23       4.71      11.06
H      28.65       3.31      12.45
H      25.29       2.33      11.09
H      26.08       1.81      13.22
H       5.08       1.35      19.06
H       6.14      29.27      17.47
H       2.86       3.47      18.94
H       2.73       3.02      16.72
H       6.68      26.05      11.87
H       3.67      26.75      12.24
H       4.04      24.97      10.72
H       6.09      27.55      13.96
H      30.78      25.54      19.31
H       3.88      26.91      17.58
H      29.05      28.08      19.53
H      29.11      28.10      17.27
C      23.68       8.99       3.77
C      24.85       9.66       4.18
C      25.10       9.12       5.46
C      19.75       3.62       5.34
C      19.01       4.09       4.24
C      19.62       5.32       3.93
C      25.10       5.32       9.30
C      24.90       4.03       9.82
C      23.80       3.54       9.10
C      26.27      21.59      26.76
C      27.41      20.80      26.52
C      27.96      21.37      25.35
C      23.83      27.75      25.48
C      22.78      27.34      26.33
C      22.97      25.95      26.44
C      28.71      25.16      21.42
C      28.69      26.47      20.91
C      27.79      27.15      21.76
C       5.46       9.28      26.02
C       4.13       9.70      25.82
C       3.64       8.78      24.86
C       9.15       3.56      25.28
C       9.70       4.03      26.49
C       9.10       5.29      26.66
C       3.89       4.77      21.11
C       4.43       3.69      20.39
C       5.66       3.44      21.03
C       6.72      20.06       3.14
C       5.71      19.21       3.63
C       5.50      19.66       4.95
C      10.69      25.35       5.06
C      11.19      25.19       3.76
C      10.46      24.09       3.26
C       5.48      23.34       8.97
C       5.89      24.44       9.75
C       7.12      24.81       9.18
C      28.04       1.27      14.11
C      27.32       0.45      15.17
C      30.64      28.79      15.96
C       4.08      28.95      15.57
C       1.03       2.09      14.90
C       1.84       1.36      15.70
C       3.35      29.34      13.33
C       4.17      28.59      14.08
C      28.08      13.70       1.14
C      29.13      14.50       1.93
C       1.95      15.21       1.17
C       2.58      15.80      30.04
C      27.41      14.74       0.25
C      29.15      16.22      29.83
C      28.90      12.83       0.17
C       2.61      14.29      29.75
C      14.64       1.16       1.42
C      13.68       1.88       0.47
C      13.85       1.85      30.06
C      16.68      29.46      30.30
C      13.75       0.18       2.19
C      15.52      28.45       1.43
C      15.48       0.25       0.50
C      18.19      29.32      30.07
C      25.61      10.62       3.42
C      26.79      11.18       3.80
C      27.58      12.11       3.01
C      27.15      12.88       1.99
C      27.88      19.71      27.34
C      29.04      19.02      27.20
C      29.50      17.95      28.05
C      28.73      17.24      28.92
C       3.39      10.73      26.50
C       3.90      11.77      27.20
C       3.08      12.61      28.03
C       3.47      13.69      28.76
C       5.02      18.16       2.92
C       4.25      17.21       3.52
C       3.39      16.22       2.92
C       2.96      16.13       1.63
C      17.93       3.39       3.57
C      17.25       3.82       2.48
C      16.24       3.06       1.78
C      15.50       2.04       2.27
C      12.21      26.00       3.14
C      12.67      25.91       1.86
C      13.69      26.73       1.27
C      14.56      27.53       1.95
C      21.82      28.19      26.99
C      20.68      27.80      27.63
C      19.91      28.70      28.42
C      18.76      28.41      29.10
C      10.64       3.42      27.40
C      11.17       2.17      27.31
C      12.14       1.61      28.23
C      12.90       2.33      29.10
C      25.67       3.32      10.82
C      26.81       3.76      11.40
C      27.59       3.04      12.39
C      27.14       2.07      13.22
C       3.80       3.02      19.28
C       4.21       1.88      18.67
C       3.52       1.25      17.56
C       2.73       1.92      16.67
C       5.12      25.11      10.77
C       5.60      25.94      11.74
C       4.72      26.76      12.53
C       5.08      27.59      13.55
C      29.36      27.06      19.78
C      30.35      26.51      19.02
C       2.85      27.15      17.84
C      30.18      28.00      17.06
N      24.16       8.20       5.77
N      23.28       8.12       4.72
N      20.64       5.55       4.78
N      20.72       4.50       5.66
N      23.38       4.47       8.21
N      24.19       5.57       8.34
N      27.21      22.41      24.95
N      26.16      22.55      25.83
N      24.04      25.57      25.72
N      24.57      26.69      25.12
N      27.32      26.30      22.70
N      27.89      25.07      22.49
N       4.60       7.90      24.53
N       5.73       8.20      25.26
N       8.27       5.55      25.64
N       8.30       4.48      24.78
N       5.82       4.30      22.05
N       4.73       5.13      22.10
N       6.32      20.70       5.21
N       7.08      20.94       4.09
N       9.59      23.65       4.19
N       9.74      24.43       5.31
N       7.42      23.99       8.16
N       6.41      23.07       8.03
