116

Zn       1.84       6.18       7.02
Zn      -1.38       6.25       6.95
Zn       0.21       5.32       9.63
Zn       0.16       3.48       7.00
Zn      -1.55      15.17       0.59
Zn      -8.85      10.64      13.44
Zn       1.61      15.14       0.75
Zn       9.12       1.92       0.69
H       2.53       1.48       4.20
H       0.39       2.06      12.25
H       3.57       1.19       5.58
H      11.85       3.80       3.38
H      13.76       1.45       2.85
H      -4.37       4.84       4.28
H      -2.30       7.31      12.32
H      -4.07       8.17       9.94
H       1.98      11.69       3.02
H      -1.10      11.43       2.99
H       4.10       0.54       2.78
H       6.88       3.54       3.91
H       2.71       3.53       2.82
H       4.36       2.57       1.49
H     -12.09       6.49      10.90
H      -2.84       1.20       5.95
H      -5.36       6.34      11.28
H       5.90      -0.86       3.74
H       7.75       2.45       5.99
H       3.84       4.82       3.26
H       5.52       3.81       2.00
H     -13.67       7.91      13.77
H     -12.31       8.95      11.20
H       2.81       7.27      12.19
H      -0.07       0.23      13.85
H       0.43      -1.56      11.40
C      -2.50       3.83       5.74
C       4.10       6.84      10.59
C       0.04      -0.01      12.79
C       2.94       6.38       9.75
C       0.24      -1.29      12.43
C       0.02       1.11      11.87
C      -0.40       1.17      10.58
C      12.75       3.20       3.51
C      12.87       2.06       2.80
C      -4.52       3.75       4.35
C      -3.66       3.09       5.17
C       5.18       3.45       5.25
C      -4.20       8.33      12.67
C      -5.54       8.09      12.60
C      -3.18       7.73      11.83
C       0.32       8.33       5.77
C      -3.25       7.70      10.49
C       1.01      11.25       3.27
C      -0.11      11.86       2.83
C       1.01      10.00       4.00
C       0.31       9.67       5.11
C       0.23      -2.43      13.37
C       3.76       3.17       4.67
C      -0.06      13.14       2.09
C     -11.47       9.30      13.19
C      11.77       1.53       1.97
C      -6.54       8.86      13.43
C      -0.17       2.41       9.77
C       6.64       1.44       2.22
C      -2.22       7.02       9.67
C       2.64       3.80       5.50
C       3.54       1.64       4.58
C       4.58       0.95       3.69
C       5.59       2.00       3.19
C       3.71       3.73       3.23
C       5.50       6.70      10.08
C      -3.79       1.66       5.60
C      -6.10       6.98      11.79
C       5.17      -0.30       4.35
C       7.28       1.93       5.12
C       4.80       3.06       2.37
C       6.25       2.75       4.36
C     -13.52       7.99      12.69
C     -12.47       8.73      12.26
C       3.84       7.35      11.82
I      -1.38      -0.37       9.53
I      -3.38       9.70      14.06
I       2.30       8.56       3.11
I      -0.91      11.04       6.15
I       5.73       5.58       5.37
I       5.20       2.71       7.36
O       0.20       5.32       7.67
O      11.95       0.33       1.54
O      -7.28       9.65      12.77
O      -1.45       3.12       5.93
O       7.64       2.20       1.97
O      -6.53       8.63      14.68
O       6.37       0.33       1.67
O     -11.67       9.16      14.44
O      10.75       2.27       1.75
O       0.43      -3.56      12.80
O       1.07      13.72       1.98
O       1.41       7.97       6.32
O       3.10       6.42       8.49
O      -0.78       7.68       5.74
O      -0.05       3.51      10.40
O      -2.41       7.06       8.41
O       1.76       3.01       5.98
O      -1.25       6.46      10.28
O       2.64       5.07       5.61
O       5.85       6.75       8.91
O      -4.85       1.05       5.66
O      -7.30       6.75      11.72
O      -0.09       2.25       8.51
O       4.81      -0.72       5.44
O       7.64       0.82       4.77
O      -2.63       5.07       5.99
O       1.89       6.01      10.38
O       9.12       0.07       0.02
O       0.02      -2.23      14.61
O      -1.18      13.54       1.62
O     -10.48       9.89      12.64
