138

Zn       5.67      15.67       6.88
Zn      15.52       6.07       6.88
Zn      26.11      16.95       8.70
Zn      16.26      26.55       8.70
Zn      20.29      20.82       0.00
Zn       0.90       0.92       0.00
H       9.02      21.73       9.74
H      22.23       8.86       8.70
H      10.33      20.46       5.84
H      19.44      11.58       6.88
H      23.50      10.16       6.88
H      11.59      21.76       9.74
H      20.70      12.88       8.70
H      10.29      23.03       5.84
H       7.26      19.97       9.72
H      20.48       7.09       8.73
H       8.61      18.65       5.86
H      17.71       9.78       6.85
H      25.23      11.96       6.85
H      13.35      23.53       9.72
H      22.46      14.66       8.73
H      12.01      24.84       5.86
H      28.36      12.10      13.31
H      18.23      21.97       3.71
H      22.52      17.79       2.27
H      10.32      29.67      11.87
H      10.29      13.82      11.87
H      14.58       9.65      13.31
H       2.39      21.52       3.71
H      20.42       3.95       2.27
C       6.33      15.02       9.64
C      16.93      25.89       5.94
C      25.44      17.60       5.94
C      14.85       6.73       9.64
C      28.90      12.74      12.62
C      18.32      23.05       3.77
C      23.14      18.35       2.97
C      11.40      29.79      11.81
C       9.21      13.71      11.81
C      14.04       9.00      12.62
C       2.30      20.44       3.77
C      19.80       3.40       2.97
C       6.80      18.14       7.79
C      17.96       7.27       7.79
C      24.98      14.48       7.79
C      13.82      25.35       7.79
C       7.10      14.28      10.71
C      17.69      25.15       4.88
C      24.68      18.34       4.88
C      14.08       7.47      10.71
C      28.22      13.43      11.62
C      17.61      23.76       4.74
C      23.85      17.69       3.96
C      12.13      29.10      10.84
C       8.49      14.39      10.84
C      14.72       8.32      11.62
C       3.00      19.74       4.74
C      19.09       4.06       3.96
C       8.93      21.06       8.89
C      21.24       9.06       8.29
C       9.65      20.35       6.69
C      19.67      10.60       7.29
C      23.27      11.15       7.29
C      11.68      22.44       8.89
C      21.70      12.68       8.29
C      10.96      23.14       6.69
C       7.95      20.08       8.88
C      20.27       8.07       8.32
C       8.70      19.34       6.70
C      18.70       9.60       7.27
C      24.24      12.15       7.27
C      12.67      23.42       8.88
C      22.67      13.67       8.32
C      11.92      24.15       6.70
C       7.83      19.20       7.79
C      18.99       8.33       7.79
C      23.95      13.42       7.79
C      12.78      24.29       7.79
C       9.79      21.22       7.79
C      20.95      10.34       7.79
C      21.98      11.40       7.79
C      10.82      22.28       7.79
C      11.32      31.35      13.76
C      31.04      12.14      13.76
C      19.88      23.01       1.82
C      22.49      20.48       1.82
C       8.53      12.88      12.71
C      19.70       2.01       2.87
C       1.49      19.74       2.87
C      12.65       8.87      12.71
N      26.76      13.20      11.53
N      16.72      22.98       5.63
N      23.66      16.22       4.06
N      11.37      28.19       9.95
N       9.24      15.30       9.95
N      16.18       8.54      11.53
N       3.89      20.51       5.63
N      19.28       5.53       4.06
O       6.65      14.73       8.44
O      16.65       4.99       5.52
O      25.15      17.90       7.14
O      15.15      27.65      10.06
O      27.22      15.84      10.06
O      14.54       7.01       8.44
O       4.53      16.76       5.52
O      17.22      25.59       7.14
O       6.94      17.18       6.95
O      16.95       7.43       7.02
O       5.83      18.26       8.63
O      18.15       6.26       8.56
O      24.79      15.49       8.56
O      13.68      26.31       6.95
O      25.99      14.32       7.02
O      14.78      25.24       8.63
O      10.11      31.00      13.96
O      30.42      11.22      14.39
O      19.56      21.79       1.62
O      21.58      19.83       1.20
O      21.36       1.92       1.20
O      10.50      12.49      13.96
O      12.52      10.53      14.39
O       1.05      21.70       1.62
O      26.13      13.12      12.59
O      26.28      13.09      10.39
O      17.14      21.88       6.01
O      15.62      23.47       5.89
O       1.83      15.60       2.99
O      23.56      15.74       5.19
O      10.83       6.83       9.57
O      11.90      27.10       9.69
O      10.35      14.91       9.57
O       8.72      16.39       9.69
O      16.23      30.38      12.59
O      16.66       8.66      10.39
O      25.23      21.61       6.01
O       5.00      20.02       5.89
O      19.35       6.15       2.99
O      19.38       6.01       5.19
