100

Zn       3.18       4.88       8.68
Zn       6.10       4.93       8.73
H       6.22       7.22       5.10
H       2.95       6.00      12.75
H       6.36       3.43      13.09
H       2.74       4.90       4.14
H       5.35       5.03       0.21
H       4.81       8.05       0.26
H       2.97       5.57       1.74
H       6.16       3.52      15.58
H       6.87       0.68       9.11
H       2.64       9.14       8.04
H       6.73       9.07       9.33
H       2.73       0.75       7.98
H       1.14       6.17      14.00
H       2.05       7.69      13.98
H       1.05       8.31      16.21
H      -0.22       8.02      15.00
H       0.14       6.78      16.23
H       8.09       6.66       2.40
H       8.13       7.56       3.94
H       8.82       9.64       2.72
H       0.01       8.31       2.38
H       8.74       8.77       1.17
H       9.36       6.01      12.04
H       7.86       5.03      11.94
H       7.53       6.86      13.59
H       7.98       8.08      12.37
H       6.49       7.12      12.17
H       1.04       3.94       5.26
H       0.10       2.43       5.48
H       2.24       1.14       5.69
H       2.22       2.05       4.16
H       3.17       2.65       5.55
H      -0.17       8.05      10.13
H       1.30       7.98       9.10
H       2.71       8.21      11.19
H       1.69       9.63      10.90
H       1.22       8.45      12.15
H       8.83       4.62       4.94
H       7.37       5.20       5.83
H       6.15       3.13       5.19
H       6.68       4.02       3.75
H       7.56       2.56       4.26
C       4.81       2.35       8.50
C       4.61       7.48       8.85
C       5.95       0.14       8.90
C       3.54       9.69       8.31
C       5.86       9.65       9.01
C       3.61       0.17       8.25
C       4.67       8.97       8.72
C       4.80       0.86       8.54
C       8.90       5.59       9.48
C       0.40       4.01       7.80
C       0.36       5.57       9.53
C       8.95       4.18       7.63
C       4.43       5.49       6.17
C       4.70       4.68      11.28
C       4.48       6.00       4.76
C       4.67       4.74      12.78
C       5.51       6.86       4.36
C       3.66       5.50      13.40
C       5.62       7.26       3.03
C       3.59       5.60      14.79
C       4.72       6.76       2.06
C       4.50       4.87      15.60
C       3.67       5.93       2.48
C       5.48       4.09      14.95
C       3.54       5.56       3.82
C       5.59       4.04      13.57
C       4.90       7.03       0.62
C       4.40       4.83      17.06
C       1.60       6.93      14.64
C       0.59       7.55      15.58
C       7.96       7.66       2.85
C       8.92       8.66       2.24
C       8.30       6.02      11.77
C       7.53       7.09      12.51
C       1.04       2.94       5.71
C       2.25       2.14       5.26
C       0.90       7.80      10.11
C       1.68       8.56      11.15
C       7.91       4.32       5.48
C       7.03       3.45       4.62
N       1.05       4.76       8.71
N       8.25       4.93       8.51
O       3.68       2.91       8.68
O       5.67       6.88       9.20
O       5.93       2.94       8.30
O       3.49       6.92       8.59
O       3.34       5.01       6.59
O       5.82       4.41      10.73
O       5.52       5.56       6.83
O       3.61       4.95      10.69
O       2.63       6.33      15.44
O       6.61       8.11       2.59
O       8.16       6.31      10.34
O       1.15       3.11       7.16
O       1.06       6.36      10.37
O       8.32       3.52       6.64
