100

Zn      11.61      10.54      10.50
Zn      13.48       9.59       8.09
Zn      10.77       8.10       8.58
Zn      13.12       7.69      10.65
H      11.65      11.27      14.51
H      13.25       9.57       4.02
H       8.53       3.61       6.37
H       7.42       1.52       5.76
H      14.19      14.15      10.37
H      11.59       4.26      12.37
H      15.51      15.08      11.49
H       9.75       5.00       7.97
H      10.29       6.52       4.66
H      14.90       8.54      17.08
H      12.77       9.54       1.59
H       9.86       6.42       2.21
H      14.49       8.05      14.67
H      11.02       5.83       0.22
H      15.78       5.88       9.74
H       7.52      13.62       9.72
H      17.12      14.69      14.41
H      14.53      13.90      16.98
H      11.24      12.32      16.48
H       6.21       5.97       9.64
H       3.88       5.21       9.65
H      17.66       9.90       9.20
H      19.00      11.36       9.57
H      20.69      13.13       9.72
H       7.87       7.74       9.63
H      12.82      13.60       6.35
C      15.68       8.17       9.27
C      13.87      10.47      18.57
C      11.04       7.91       0.27
C       8.88      10.11       9.54
C      11.81       8.04       4.49
C       3.55       6.24       9.58
C      17.11       7.86       9.39
C       7.01      11.77       9.68
C      21.00      12.08       9.67
C      20.05      11.08       9.58
C       5.06       9.72       9.52
C      13.55      10.21      17.17
C       6.45       9.39       9.55
C      19.43       8.65       9.46
C       4.49       7.29       9.54
C      13.03      12.38       8.75
C       5.89       7.01       9.59
C       6.82       8.00       9.59
C      18.05       8.89       9.34
C      17.55       6.51       9.56
C       7.42      10.43       9.61
C      13.71      15.51       6.77
C      14.19       9.14      16.51
C      13.46      13.77       8.41
C      10.94       3.71      11.70
C      10.52       2.42      12.06
C      15.81      16.09      11.20
C      11.04       5.66      10.21
C       9.29       2.22       9.96
C       9.74       3.53       9.58
C      14.62      15.82       9.03
C       8.26       1.93       7.72
C       8.73       3.23       7.37
C      13.97       8.86      15.17
C       9.42       4.01       8.26
C      14.09      14.55       9.36
C      13.29      14.24       7.09
C      10.55       4.27      10.50
C      12.03       8.16       5.95
C      12.83       9.41      12.99
C      13.07       9.65      14.44
C      12.37      10.68      15.08
C      12.60      10.96      16.43
C      17.12      16.25      13.35
C      12.24       8.86       2.25
C      14.02      12.98      18.54
C      12.51       8.88       3.61
C      10.86       7.15       3.97
C      10.62       7.10       2.61
C      11.30       7.95       1.72
O      12.25       8.98       9.49
O      13.06       8.82       6.34
O      13.40       8.40      12.46
O      11.16       7.62       6.72
O      12.06      10.25      12.39
O      16.68       5.47       9.67
O       7.96      12.75       9.72
O      17.83      16.84      14.14
O      16.71      14.96      13.56
O      10.53      10.26       0.09
O      14.65      12.99      17.33
O      12.57      12.17       9.93
O      11.90      11.93      17.09
O      12.18       5.97      10.72
O      15.32       9.28       8.74
O       9.23       9.30       8.62
O      14.84       7.28       9.71
O       9.65      10.65      10.40
O      13.17      11.51       7.83
O      10.29       6.43       9.53
