352

Zn       8.72       4.58       6.82
Zn       0.40       4.58      21.27
Zn       1.42      11.95       9.63
Zn       7.70      -2.78      18.47
Zn       8.76       3.66       9.56
Zn       0.36       5.51      18.53
Zn       1.32      10.98       6.92
Zn       7.80      -1.82      21.17
H      10.91       5.29      18.37
H      -1.79       3.88       9.73
H       8.12       5.40      11.72
H       1.00       3.77      16.37
H       9.03       2.95       4.44
H       0.09       6.22      23.65
H       1.72       8.64       4.99
H       7.40       0.53      23.11
H      11.25       6.95      11.27
H      -2.13       2.22      16.82
H      -1.60       8.95      11.37
H      10.72       0.22      16.73
H       9.65       1.57      11.67
H      -0.53       7.60      16.43
H       8.35       5.56      14.22
H       0.76       3.61      13.88
H       3.73      -2.46      18.57
H       5.38      11.63       9.53
H       8.83       3.17       1.95
H       0.29       6.00      26.15
H      11.48       1.37       5.22
H      -2.36       7.80      22.87
H       9.95       1.55      14.16
H      -0.83       7.62      13.94
H       6.12       6.90      11.16
H       3.00       2.27      16.94
H       4.28       8.84      11.19
H       4.84       0.32      16.91
H      -2.80       5.74      25.92
H      11.92       3.43       2.18
H       1.61       8.31       2.51
H       7.51       0.86      25.59
H       1.11      10.82      14.57
H       8.01      -1.65      13.53
H       8.01       2.12      18.67
H       1.11       7.05       9.42
H       0.94      10.49      12.08
H       8.18      -1.32      16.02
H      13.37      -0.52       5.25
H      -4.25       9.69      22.85
H       4.65       0.65      25.85
H       4.47       8.52       2.25
H       0.22       0.02      18.36
H       8.90       9.14       9.74
H       2.22      -0.29      11.32
H       6.90       9.46      16.77
H       0.72      -1.06      26.17
H       8.40      10.23       1.92
H       0.66      12.63       4.66
H       8.45      -3.46      23.44
H       5.08       4.18       0.14
H       4.04       4.99      27.95
H       6.17       3.62       1.43
H       2.95       5.55      26.66
H       5.58       5.28       1.45
H       3.54       3.89      26.65
H      11.07       5.26      14.65
H      -1.95       3.90      13.44
H      10.64       6.54      15.80
H      -1.52       2.63      12.29
H      -2.62       5.50      16.14
H      11.74       3.66      11.96
H       2.40       0.22      13.77
H       6.72       8.94      14.32
H       0.53      12.48       2.15
H       8.59      -3.31      25.94
H       4.56      13.63       5.16
H       4.56      -4.46      22.94
H       5.87       1.29      27.74
H       3.24       7.88       0.36
H      10.23       7.54       0.85
H      -1.11       1.63      27.25
H      10.97       5.98       1.19
H      -1.85       3.19      26.91
H       7.62       1.61      15.02
H       1.50       7.56      13.08
H       7.72       0.73      16.56
H       1.40       8.44      11.53
H       6.52       2.00      16.35
H       2.60       7.17      11.74
H       6.44       0.96       5.12
H       2.68       8.21      22.97
H      13.58       9.05       1.94
H      -4.46       0.12      26.16
H      12.53       9.17       0.52
H      -3.41      -0.00      27.58
H      13.53       7.73       0.76
H      -4.41       1.44      27.34
H       3.80      11.53      14.89
H       5.32      -2.36      13.21
H       4.98      -2.56      16.18
H       4.14      11.73      11.91
H       3.93      10.64      16.43
H       5.19      -1.48      11.67
H      -1.70       6.61      27.73
H      10.82       2.56       0.37
H       2.65      12.64       0.94
H       6.47      -3.47      27.15
H       3.64      11.19       1.15
H       5.48      -2.02      26.94
H       8.36       3.25      26.29
H       0.76       5.92       1.81
H       8.29       6.99       4.99
H       0.83       2.18      23.11
H       8.08       7.38       2.54
H       1.04       1.79      25.55
H      -0.23      -0.37      14.67
H       9.35       9.54      13.43
H      -1.15      -0.26      16.18
H      10.27       9.43      11.91
H      -0.06       1.04      15.74
H       9.17       8.13      12.36
C       1.82      -1.78      14.38
C       7.30      10.94      13.72
C       1.97      -1.22      18.62
C       7.14      10.39       9.47
C      10.14       4.55      16.50
C      -1.02       4.61      11.60
C      10.22       4.59      17.89
C      -1.10       4.58      10.21
C       8.52       4.58      12.31
C       0.60       4.59      15.78
C       9.45       3.74      18.69
C      -0.33       5.43       9.41
C       2.93       9.43       8.76
C       6.19      -0.26      19.34
C       2.07      -1.05      20.07
C       7.05      10.22       8.03
C      -0.10      -1.18       7.77
C       9.21      10.35      20.33
C       8.82       3.91       3.97
C       0.30       5.26      24.13
C      11.77       1.53       7.37
C      -2.65       7.64      20.73
C       1.46       9.46       4.32
C       7.66      -0.30      23.78
C      11.63       7.50      10.42
C      -2.51       1.67      17.68
C       7.21       2.09       7.64
C       1.91       7.08      20.45
C      -0.69      10.00       8.87
C       9.81      -0.83      19.23
C      -1.74       9.02       9.21
C      10.86       0.15      18.89
C      11.24       7.21       9.12
C      -2.12       1.96      18.97
C       1.90      -1.55      15.84
C       7.22      10.72      12.25
C      10.77       2.56       7.73
C      -1.65       6.61      20.37
C      -2.07       8.55      10.47
C      11.19       0.62      17.63
C       3.46      12.90       7.70
C       5.66      -3.73      20.39
C       8.28       5.41       0.56
C       0.84       3.76      27.54
C       2.91      -2.19      16.60
C       6.21      11.35      11.50
C       9.36       2.42      12.28
C      -0.24       6.75      15.82
C       8.65       4.65      13.69
C       0.47       4.51      14.40
C      10.30       6.15       8.72
C      -1.18       3.02      19.37
C       5.68       6.67       9.04
C       3.44       2.50      19.05
C       9.16       3.56      14.41
C      -0.04       5.61      13.69
C       2.94      -2.00      17.98
C       6.18      11.17      10.12
C       2.70      -0.28      25.86
C       6.42       9.45       2.24
C       2.60      -0.46      24.41
C       6.51       9.63       3.69
C      -1.13      -0.20       7.39
C      10.25       9.37      20.71
C       9.57       3.81      20.13
C      -0.45       5.36       7.96
C       2.97      -1.01      22.06
C       6.15      10.18       6.04
C       3.95       8.42       9.09
C       5.17       0.75      19.00
C       8.71       4.04       2.59
C       0.41       5.13      25.50
C      12.02       1.03       6.10
C      -2.90       8.14      22.00
C       6.69       5.67       8.66
C       2.43       3.50      19.43
C       9.52       2.43      13.66
C      -0.40       6.74      14.44
C       5.51       7.22      10.31
C       3.60       1.95      17.79
C       4.62      -0.82       7.32
C       4.50       9.99      20.78
C       1.07      10.38       2.12
C       8.05      -1.21      25.98
C       9.28       3.61      15.88
C      -0.16       5.56      12.21
C       1.69      -0.56      22.43
C       7.43       9.73       5.67
C       4.54       8.23      10.33
C       4.58       0.94      17.77
C      -3.55       5.25      26.54
C      12.67       3.92       1.55
C      -3.48       5.41      27.92
C      12.60       3.75       0.17
C       8.51       2.72      16.68
C       0.61       6.45      11.42
C       1.40       9.29       2.94
C       7.72      -0.12      25.16
C       1.34      11.64      13.88
C       7.78      -2.47      14.22
C       8.43       5.30       2.03
C       0.69       3.87      26.06
C       8.60       2.81      18.07
C       0.52       6.36      10.03
C       6.29       0.99       7.28
C       2.83       8.18      20.81
C       1.25      11.44      12.51
C       7.87      -2.27      15.59
C      13.02       0.03       6.11
C      -3.90       9.14      21.98
C       1.68      -0.59      28.05
C       7.44       9.76       0.05
C       0.99      10.25       0.64
C       8.13      -1.08      27.46
C       3.83       0.29      26.47
C       5.29       8.88       1.63
C       3.91       0.41      27.86
C       5.21       8.76       0.24
C       0.97      -0.60      17.87
C       8.15       9.77      10.23
C       2.00      -1.05      12.08
C       7.12      10.21      16.01
C       0.92      -0.74      16.48
C       8.20       9.91      11.62
C       1.61      -0.66      26.66
C       7.51       9.83       1.44
C       0.88      11.70       4.12
C       8.24      -2.53      23.97
C      -0.04       9.47       0.06
C       9.16      -0.31      28.04
C      -4.26       4.38      22.08
C      13.38       4.79       6.01
C       5.92       4.47       0.79
C       3.20       4.70      27.31
C      11.01       5.51      15.72
C      -1.89       3.66      12.38
C       2.10      -0.77      13.44
C       7.02       9.94      14.66
C       0.81      11.61       2.74
C       8.31      -2.44      25.35
C       5.05      -0.52       6.03
C       4.07       9.69      22.07
C      10.52       6.58       0.39
C      -1.40       2.58      27.70
C      -4.53       4.45      25.94
C      13.65       4.72       2.16
C       7.55       1.71      16.10
C       1.57       7.46      11.99
C       9.28       3.63      22.55
C      -0.16       5.54       5.55
C       5.99       0.53       6.01
C       3.13       8.64      22.08
C      13.51       8.83       0.87
C      -4.39       0.34      27.23
C       4.00      -3.02      15.97
C       5.12      12.19      12.12
C       3.04      11.76       0.42
C       6.08      -2.59      27.67
C       9.15       3.84      26.76
C      -0.03       5.33       1.33
C      -4.60       4.26      24.50
C      13.72       4.91       3.60
C       8.41       6.17       4.28
C       0.71       3.00      23.81
C       8.29       6.38       2.91
C       0.83       2.79      25.19
C      -0.18      -0.06      15.72
C       9.30       9.22      12.38
S       4.61       7.38       7.90
S       4.51       1.79      20.20
S      12.74       0.78       8.57
S      -3.62       8.38      19.53
S       5.41       0.15       8.49
S       3.71       9.02      19.60
S      12.04       8.19       7.97
S      -2.92       0.98      20.13
S       0.70      -0.47      21.02
S       8.42       9.64       7.08
S       3.98      -1.03      23.46
S       5.14      10.20       4.64
S       8.41       3.01      21.20
S       0.71       6.16       6.90
S      -3.40       5.00      23.43
S      12.52       4.16       4.66
N       1.63      -2.26      11.62
N       7.49      11.42      16.47
N       8.86       3.48      11.61
N       0.26       5.69      16.48
N       8.67       4.95       4.80
N       0.45       4.22      23.29
N       1.19      10.65       4.90
N       7.93      -1.48      23.20
N       3.18      -1.29      20.75
N       5.94      10.46       7.34
N       1.48      -0.28      23.73
N       7.64       9.45       4.36
N      10.53       4.49      20.75
N      -1.41       4.68       7.35
N       9.09       3.56      23.89
N       0.03       5.61       4.21
O      10.31       3.26       6.77
O      -1.19       5.91      21.33
O       0.22      -1.27       9.00
O       8.90      10.44      19.09
O       2.43       9.39       7.58
O       6.69      -0.22      20.52
O       9.95       6.09       7.49
O      -0.83       3.08      20.60
O      -0.15      10.62       9.84
O       9.27      -1.45      18.25
O       7.55       2.18       8.87
O       1.56       6.99      19.22
O       3.04      12.11       6.80
O       6.08      -2.94      21.29
O      10.44       2.64       8.96
O      -1.32       6.53      19.14
O       7.05       5.62       7.44
O       2.07       3.55      20.66
O       2.64      10.26       9.68
O       6.48      -1.09      18.41
O       7.57       2.86       6.69
O       1.55       6.31      21.40
O      -0.40      10.13       7.63
O       9.52      -0.96      20.46
O       3.14      -1.69       8.91
O       5.98      10.85      19.18
O       0.29      12.79       6.82
O       8.83      -3.62      21.28
O       7.15       4.96       9.61
O       1.97       4.21      18.48
O       9.92       5.38       9.66
O      -0.80       3.79      18.44
