124

Zn       7.10       0.01       8.87
Zn       4.37       0.47       9.23
Zn       6.77       9.36      18.27
Zn       9.51       8.99      17.82
H       8.91       6.11       2.60
H       3.24       3.19       5.98
H      10.68      12.24      15.11
H       5.03      15.63      12.15
H       8.84      11.47       2.42
H       5.12      15.80       6.78
H       4.74       6.42      15.87
H       9.13       2.39      11.83
C       6.74       1.79      10.80
C       5.28       1.97       7.23
C       7.57      16.52       7.39
C       7.09      16.90      11.01
C       6.39      10.87       1.70
C       6.86       7.26       1.31
C       7.13       7.44      16.48
C       8.62      11.00      16.32
C       5.56       5.60       2.72
C       7.96       5.68       2.91
C       7.90       4.77       3.93
C       6.68       4.22       4.42
C       6.59       3.27       5.48
C       4.19       3.45       5.52
C       4.23       4.23       4.40
C       5.45       4.68       3.80
C       6.77       6.12       2.29
C       5.37       2.92       6.07
C       7.33      12.75      15.02
C       9.73      12.69      14.84
C       9.69      13.82      14.06
C       8.48      14.41      13.60
C       8.38      15.49      12.67
C       5.98      15.31      12.58
C       6.03      14.29      13.50
C       7.24      13.80      14.06
C       8.54      12.16      15.37
C       7.17      15.92      12.14
C       5.85      12.40       3.70
C       8.13      11.98       3.07
C       8.58      12.78       4.08
C       7.70      13.54       4.91
C       8.11      14.53       5.85
C       5.84      15.16       6.27
C       5.39      14.15       5.47
C       6.27      13.33       4.70
C       6.75      11.76       2.86
C       7.21      15.37       6.49
C       7.89       5.42      15.13
C       5.54       5.85      15.41
C       5.25       4.77      14.61
C       6.25       4.05      13.89
C       5.99       3.12      12.83
C       8.33       2.85      12.40
C       8.63       3.64      13.48
C       7.63       4.36      14.21
C       6.88       6.21      15.66
C       7.00       2.60      12.04
N       2.89       4.54       3.84
N       4.33       6.07       2.02
N       9.22       4.50       4.57
N       7.82       2.57       5.94
N       4.71      13.66      13.77
N       6.09      12.30      15.71
N      11.03      14.37      13.75
N       9.61      16.18      12.21
N       3.92      13.96       5.54
N       4.41      12.13       3.48
N      10.05      12.71       4.27
N       9.56      14.75       6.11
N      10.07       3.59      13.86
N       9.29       5.74      15.50
N       3.81       4.39      14.66
N       4.59       2.75      12.51
O       7.76       1.22      10.25
O       5.56       1.73      10.37
O       4.14       1.80       7.78
O       6.35       1.40       7.58
O       6.59      17.14       7.90
O       8.81      16.80       7.56
O       8.16      17.06      10.34
O       5.97      17.47      10.75
O       5.16      10.71       1.41
O       7.38      10.36       1.08
O       7.98       7.50       0.75
O       5.80       7.92       1.14
O       8.32       7.87      16.55
O       6.12       7.99      17.04
O       7.55      10.66      16.89
O       9.76      10.44      16.50
O       2.64       4.04       2.73
O       2.13       5.20       4.54
O       4.17       5.64       0.88
O       3.59       6.82       2.65
O       9.85       3.53       4.17
O       9.56       5.32       5.43
O       8.09       1.53       5.34
O       8.46       3.09       6.86
O       4.07      14.08      14.73
O       4.37      12.80      12.96
O       5.82      12.92      16.74
O       5.45      11.38      15.20
O      11.29      15.47      14.24
O      11.79      13.65      13.09
O       9.78      17.33      12.63
O      10.35      15.55      11.45
O       3.55      12.85       5.97
O       3.21      14.92       5.27
O       3.98      11.05       3.88
O       3.79      13.03       2.90
O      10.42      12.27       5.37
O      10.76      12.99       3.31
O       9.99      14.34       7.19
O      10.18      15.34       5.22
O      10.29       3.28      15.04
O      10.90       3.75      12.97
O       9.65       5.47      16.64
O       9.97       6.27      14.61
O       3.59       3.21      14.97
O       2.98       5.28      14.51
O       4.24       1.60      12.78
O       3.90       3.64      11.99
