72

Fe      12.22       0.00       4.06
Fe      15.28       9.44       5.38
Fe      15.28       1.32       5.38
Fe       6.11       0.00       6.70
H      19.86      10.08       6.06
H       7.64       0.68       4.70
H      10.69       0.68       6.06
H      10.69      10.08       4.70
H       7.56      10.76       0.00
H      13.82       5.38       5.38
H      16.87      10.76       0.00
H      16.73       5.38       5.38
H       5.17       0.61       2.07
H      10.11       7.46       5.98
H      13.16      10.16       2.07
H       8.22       3.31       5.99
H       8.22       7.46       4.78
H      13.16       0.61       8.69
H      10.11       3.31       4.78
H      17.39      10.16       8.69
C       2.52       0.55       2.45
C      12.75       7.83       5.93
C      15.81      10.21       2.45
C       5.58       2.93       5.93
C      17.80       7.83       4.83
C      15.81       0.55       8.31
C      12.75       2.93       4.83
C      14.74      10.21       8.31
C       3.25       0.29       1.17
C      12.02       6.55       5.67
C      15.08      10.47       1.17
C       6.31       4.21       5.67
C      18.53       6.55       5.09
C      15.08       0.29       9.59
C      12.02       4.21       5.09
C      15.47      10.47       9.59
C       8.65      10.76       0.00
C      12.73       5.38       5.38
C      21.90      10.76      10.76
C      17.82       5.38       5.38
C       4.65       0.32       1.16
C      10.63       6.54       5.70
C      13.68      10.44       1.16
C       7.71       4.22       5.70
C       7.71       6.54       5.06
C      13.68       0.32       9.60
C      10.63       4.22       5.06
C      16.87      10.44       9.60
C      17.59      10.76      10.76
C       9.90       5.38       5.38
C      12.96      10.76       0.00
C       8.43       5.38       5.38
O      13.75       0.00       5.38
O      13.75      10.76       5.38
O      16.80      10.76       5.38
O       4.58       0.00       5.38
O      13.56       0.09       2.54
O      13.93       7.92       5.47
O      16.99      10.67       2.54
O      16.62       2.84       5.47
O      16.62       7.92       5.29
O       4.77       0.09       8.22
O      13.94       2.84       5.29
O      13.56      10.67       8.22
O       3.15       1.19       3.36
O      12.12       8.74       6.57
O      15.18       9.57       3.36
O       6.21       2.03       6.57
O      18.43       8.74       4.19
O      15.18       1.19       7.41
O      12.12       2.03       4.19
O      15.37       9.57       7.41
