126

Zn      18.26       5.23       5.79
Zn      16.66      16.90      12.04
Zn      19.86       4.38       3.12
Zn      19.86      16.90      12.04
Zn      18.26       7.14       3.22
Zn      18.26      15.90       9.46
Zn      18.26      14.10      12.11
Zn      16.66       4.38       3.12
H      18.26       8.32       8.70
H      17.37      11.36       4.39
H      19.15      13.42       5.86
H      19.15      11.36       4.39
H      15.52      17.17       6.63
H      15.52       9.41       1.10
H      20.99      17.17       6.63
H      20.99       9.41       1.10
H      18.26      10.34      10.14
H      31.89      19.04      10.01
H      13.63       5.60       0.44
H      22.88      19.04      10.01
H       4.63       5.60       0.44
H      21.03       3.96       8.48
H      21.03      11.97      14.19
H      15.48       3.96       8.48
H      15.48      11.97      14.19
H       2.15       1.00       0.77
H      20.40      20.23      14.47
H      16.11       1.00       0.77
H      34.37      20.23      14.47
H      12.00      17.18       4.53
H      13.32      16.00       4.86
H      13.25      16.88       3.29
H      13.32      11.46       1.63
H      12.00      11.39       0.40
H      17.37      13.42       5.86
H      13.25      12.66       0.29
H      23.20      16.00       4.86
H      24.52      17.18       4.53
H      23.27      16.88       3.29
H      24.52      11.39       0.40
H      23.20      11.46       1.63
H      23.27      12.66       0.29
C      15.72       6.79       1.72
C      14.73       8.81       0.65
C      31.88      14.70      15.05
C      13.06      16.95       4.37
C      13.06      11.62       0.56
C      23.46      16.95       4.37
C      23.46      11.62       0.56
C      21.79      17.78       7.05
C      21.79       8.81       0.66
C      14.73      17.78       7.05
C      14.69      18.04       8.42
C      14.69       7.43       0.86
C      21.83      18.04       8.42
C      15.72      17.44       9.31
C      21.83       7.43       0.86
C      31.92      18.84       8.94
C      13.66       6.68       0.28
C      22.85      18.84       8.94
C       4.60       6.68       0.28
C      20.79       6.79       1.72
C      21.83       3.33       8.09
C      21.83      12.55      14.66
C      14.68       3.33       8.09
C      14.68      12.55      14.66
C      20.79      17.44       9.31
C      21.86       3.08       6.70
C      21.86      13.94      14.44
C      14.66       3.08       6.70
C      14.66      13.94      14.44
C       1.21       0.53       0.45
C      19.47      20.68      14.81
C      17.04       0.53       0.45
C      35.30      20.68      14.81
C      18.26      20.11      14.40
C      18.26       1.11       0.86
C      20.81       3.74       5.86
C      20.81      14.52      13.55
C      15.71       3.74       5.86
C      15.71      14.52      13.55
C      18.26       2.33       1.71
C      18.26      18.90      13.52
C      18.26       8.19       5.98
C      18.26      12.96       9.37
C      18.26      10.69       6.31
C      18.26      11.83       7.12
C      18.26       9.40       6.84
C      18.26      11.74       8.51
C      18.26       9.31       8.25
C      18.26      10.44       9.06
C      18.26      12.78       5.94
C      18.26      11.49       5.02
C       4.63       2.26       6.18
C      22.89      14.70      15.05
C      13.63       2.26       6.18
O      18.26       5.28       3.82
O      16.67      16.79       8.74
O      19.85       7.54       2.14
O      19.85      16.79       8.74
O      19.85       4.30       6.49
O      19.85      13.74      13.21
O      16.67       4.30       6.49
O      16.67      13.74      13.21
O      18.26      15.94      11.42
O      15.56       3.69       4.60
O      15.57      15.73      13.17
O      20.95       3.69       4.60
O      20.95      15.73      13.17
O      20.93       5.54       1.97
O      20.93      17.61      10.57
O      15.58       5.54       1.97
O      15.58      17.61      10.57
O      17.12       2.80       2.04
O      17.12      18.43      13.18
O      19.40       2.80       2.04
O      19.40      18.43      13.18
O      18.26       8.40       4.72
O      18.26      14.08       8.76
O      18.26       7.05       6.55
O      16.67       7.54       2.14
O      18.26      12.79      10.64
O       4.78       1.97       4.85
O      23.04      16.06      14.89
O      13.48       1.97       4.85
O      31.74      16.06      14.89
