168

Zn       7.75       7.85       9.84
Zn       7.80      10.81       9.72
H       5.67      12.20      14.22
H       6.11      11.55      12.59
H       6.54      13.23      13.03
H      11.32       9.05       6.61
H      11.94      10.72       6.78
H      11.90       9.95       5.15
H       4.70       8.95       4.57
H       5.22       9.62       6.16
H       4.22       8.13       6.10
H       5.59       7.16      13.21
H       5.67       6.43      14.86
H       6.19       5.49      13.42
H       9.54      12.71      15.29
H      10.26      11.81      16.67
H       9.40      13.36      16.96
H      10.90      12.52       2.65
H       9.85      12.44       4.11
H       9.14      12.18       2.47
H       6.29       6.03       4.01
H       7.56       5.90       2.74
H       5.83       5.90       2.28
H       9.90       6.55      16.72
H       8.96       5.76      15.39
H       8.75       5.23      17.09
H      12.38       9.12       0.02
H      11.45      10.28      18.06
H      12.35       8.75      17.78
H       5.40      11.57       0.21
H       6.77      12.22       1.14
H       5.26      11.78       1.99
H      11.01       6.49       0.38
H       9.97       6.31       1.83
H      11.74       6.52       2.02
H       4.51       8.98      18.96
H       5.30       8.33      17.48
H       4.10       9.65      17.34
H      10.51       6.72      12.74
H      11.03       5.64      11.42
H      10.36       4.94      12.94
H       4.65      14.04       7.87
H       4.62      12.55       8.91
H       4.56      12.40       7.13
H       4.72       6.06       6.99
H       4.67       6.16       8.78
H       4.84       4.55       7.97
H      11.11      13.92      11.44
H      11.12      12.41      10.42
H      11.11      12.29      12.21
H      10.05       1.29      11.29
H      11.08       2.75      11.11
H      10.68       2.12      12.74
H       6.70      14.37       6.08
H       7.86      15.74       6.12
H       6.12      16.04       5.74
H       8.21       3.49       6.14
H       6.72       2.62       5.64
H       6.64       4.37       6.05
H       9.75      16.00      13.49
H       9.10      14.35      13.15
H       8.01      15.78      13.10
C       8.03       9.20       7.27
C       7.57       9.33      12.31
C       7.63       9.37      13.81
C       8.18       9.17       5.77
C       9.25       8.94      18.84
C       7.49       9.75       0.76
C       9.70       8.76       0.81
C       7.01       9.84      18.79
C       8.56       9.21       1.49
C       8.16       9.41      18.11
C       8.53       5.12      10.73
C       7.13      13.59       8.74
C       7.23       5.09       8.78
C       8.64      13.57      10.52
C       8.64       3.71      10.73
C       7.20      14.99       8.64
C       7.40       3.70       8.64
C       8.65      14.97      10.59
C       8.07       3.01       9.66
C       7.94      15.69       9.61
C       7.02       0.84      10.34
C       8.99      17.85       8.89
C       8.98       0.78       8.90
C       7.02      17.91      10.31
C       7.98      17.17       9.60
C       8.04       1.52       9.64
C       5.19       9.42       9.61
C      10.35       9.32       9.88
C      15.17       7.99       9.73
C       0.36      10.45       9.34
C       0.43       8.02       9.69
C      15.10      10.42       9.36
C      14.41       9.19       9.59
C       1.11       9.26       9.52
C      13.01       9.18       9.69
C       2.52       9.30       9.53
C       3.74       9.38       9.56
C      11.80       9.23       9.80
C       7.78      10.59      14.52
C       9.23       9.87       5.17
C       7.27       8.47       4.98
C       7.67       8.16      14.56
C       8.04      10.59      15.90
C       9.36       9.88       3.77
C       7.43       8.42       3.58
C       7.92       8.18      15.94
C       8.10       9.39      16.62
C       8.47       9.15       2.97
C       6.43      12.20      13.41
C      11.39      10.04       6.12
C       5.01       8.70       5.59
C       6.15       6.49      13.87
C       9.42      12.45      16.35
C      10.03      12.03       3.11
C       6.56       6.30       2.98
C       8.95       6.09      16.44
C      11.57       9.23      18.39
C       5.93      11.52       1.16
C      10.87       6.80       1.42
C       4.90       9.23      17.96
C      10.31       5.77      12.23
C       4.96      12.99       7.96
C       5.09       5.62       7.92
C      10.76      12.88      11.35
C      10.31       2.27      11.72
C       6.82      15.43       6.32
C       7.12       3.41       6.28
C       9.03      15.42      12.90
I       1.58       6.29       9.91
I      13.95      12.14       9.07
I      14.10       6.20       9.97
I       1.41      12.25       9.08
I       5.59       1.98      11.39
I      10.42      16.70       7.86
I      10.47       1.84       7.85
I       5.50      16.85      11.32
N       7.82       5.76       9.79
N       7.86      12.91       9.64
O       8.35       8.15       7.90
O       8.00      10.36      11.69
O       7.14       8.28      11.73
O       7.58      10.28       7.77
O       5.77       8.34       9.31
O       9.85      10.42       9.51
O       9.76       8.28      10.30
O       5.71      10.53       9.95
O       7.71      11.84      13.94
O      10.08      10.62       5.96
O       6.18       7.85       5.57
O       7.51       6.92      13.99
O       8.17      11.78      16.58
O      10.36      10.63       3.18
O       6.54       7.72       2.79
O       7.87       7.01      16.68
O      10.37       8.48      18.15
O       6.38      10.19       1.45
O      10.75       8.23       1.53
O       5.91      10.25      18.06
O       8.98       5.92      11.70
O       6.40      12.85       7.87
O       6.52       5.82       7.89
O       9.32      12.81      11.40
O       9.15       3.12      11.86
O       6.49      15.70       7.71
O       6.83       2.97       7.63
O       9.38      15.67      11.52
