90

Mg       3.44      13.20       8.36
Mg       1.15      11.75       7.25
Mg      -1.14      13.43       6.55
Mg      -1.15      -0.41      13.80
Mg       1.15       1.04      14.90
Mg       3.44      -0.64      15.60
H      -0.79       8.52       9.24
H       3.80      13.32       2.76
H       1.51      16.53      10.15
H      -0.00       5.29      11.17
H       2.29       0.47      21.15
H       4.58      -5.76      11.99
H       0.99       3.21      12.15
H       3.28       0.66      18.85
H      -1.30      -3.87      13.30
H       3.08       4.27      12.91
H      -1.50      -0.53      19.39
H       0.79      -3.74      12.00
H       2.30       7.50      10.98
H       0.01      12.32       1.01
H      -2.28      18.55      10.16
H       1.30       9.58      10.00
H      -0.99      12.12       3.30
H       3.60      16.66       8.85
C      -1.46      10.81       8.10
C       3.13      13.16       5.31
C       0.83      14.40       8.74
C       4.51       9.94       8.88
C       2.22      12.92       4.17
C      -0.07      15.51       9.10
C      -1.83       8.76       9.42
C       2.75      13.04       2.88
C       0.46      16.57       9.85
C       4.27       7.89      10.18
C       1.98      12.81       1.74
C      -0.31      17.67      10.22
C      -1.97       4.90      11.97
C       0.32      -0.02      20.41
C       2.61      -4.88      11.93
C      -0.60       4.60      11.76
C       1.69       0.30      20.25
C       3.98      -4.90      12.29
C      -0.06       3.45      12.30
C       2.23       0.41      18.99
C       4.52      -3.86      13.01
C      -0.84       2.53      13.05
C       1.46       0.23      17.82
C       3.75      -2.76      13.44
C      -2.21       2.85      13.27
C       0.08      -0.13      17.98
C       2.37      -2.72      13.05
C       4.13       4.03      12.73
C      -0.45      -0.25      19.27
C       1.84      -3.78      12.30
C       3.75       1.98      14.05
C      -0.83      -0.37      16.84
C       1.46      -1.61      13.41
C       2.90       8.19      10.39
C       0.61      12.49       1.90
C      -1.68      17.69       9.87
C       2.36       9.34       9.85
C       0.06      12.38       3.16
C      -2.23      16.65       9.14
C       3.13      10.26       9.11
C       0.84      12.56       4.33
C      -1.45      15.55       8.71
N      -1.93       6.77      10.71
N       2.65      12.92       0.51
N       0.36      18.68      10.93
N       4.23       6.02      11.44
N      -0.35      -0.13      21.64
N       1.94      -5.89      11.22
O      -0.27      10.44       7.83
O       4.31      13.58       5.13
O       2.02      14.35       9.20
O      -1.89      11.97       7.73
O       2.69      12.90       6.50
O       0.40      13.50       7.92
O       2.55      11.38       8.67
O       0.25      12.38       5.52
O      -2.04      14.61       7.96
O       2.57       2.35      14.33
O      -2.02      -0.79      17.02
O       0.28      -1.56      12.95
O       4.19       0.82      14.43
O      -0.39      -0.11      15.65
O       1.90      -0.71      14.23
O      -0.25       1.41      13.48
O       2.04       0.41      16.63
O       4.33      -1.82      14.19
