228

Zn       7.45       8.96      15.55
Zn      26.91      10.75      18.18
Zn       8.87      11.88      15.61
Zn      25.39      11.77      15.55
Zn      18.23       7.32       8.83
Zn      16.79       4.44       8.66
Zn      18.57       5.49       6.18
Zn      20.00       4.62       8.83
Zn      16.03      16.27      22.36
Zn      17.57      15.39      24.98
Zn      15.73      18.06      25.02
Zn      14.33      15.22      24.88
Zn      17.46       5.02      31.91
Zn      14.29       4.84      31.71
Zn      24.61      19.84      31.76
Zn      18.32      17.70       1.96
H      23.00       5.90      11.39
H      20.61       9.48      11.49
H      24.65       6.98      12.92
H      11.21      13.38      22.67
H      13.65      14.76      19.40
H       9.60      12.41      21.02
H      12.23       1.48       4.97
H      14.40       2.96       1.56
H      13.95       2.49       6.48
H      22.07      17.61      29.18
H      11.34       3.64      29.13
H      20.36      16.65      27.63
H      23.96      11.75      12.96
H      10.35      14.24      16.65
H      17.92       3.60       3.99
H      16.43      19.41      27.58
C       7.33       7.81      18.26
C       9.66      12.44      18.41
C      10.03       9.55      14.24
C      26.91      13.93      14.24
C      24.68       9.41      13.91
C      24.34      12.15      18.25
C      15.65       6.72      10.14
C      16.13       3.81       5.88
C      18.35       8.41       6.08
C      21.16       4.14       6.15
C      20.73       7.00      10.39
C      18.43       2.42      10.03
C      18.63      14.88      22.28
C      18.21      17.74      26.63
C      15.98      19.23      22.36
C      13.14      17.54      26.30
C      13.52      14.72      22.09
C      16.02      13.30      26.36
C      15.84       7.00      30.44
C      22.12      20.14      30.19
C      27.22      20.40      30.48
C      18.43      14.73       2.03
C      12.19       1.55       2.25
C       7.08       1.33       1.95
C      23.59       8.84      13.05
C      21.72       7.63      11.33
C      22.43       9.54      12.64
C      22.85       6.92      11.74
C      21.50       8.94      11.79
C      23.77       7.52      12.59
C      10.70      13.05      19.30
C      12.53      14.14      21.13
C      11.86      13.72      18.84
C      11.38      13.47      21.59
C      12.76      14.26      19.76
C      10.49      12.94      20.68
C      12.29       9.67      12.98
C      13.38       6.61      11.39
C      11.13       9.03      13.43
C      14.53       7.25      10.94
C      12.55       7.49      12.12
C      13.10       8.78      12.23
C      23.08      12.69      20.45
C      19.89      14.33      20.08
C      23.24      12.67      19.06
C      19.73      14.35      21.47
C      21.11      13.72      19.71
C      21.86      13.29      20.82
C       7.26       6.46      20.47
C       7.43       2.87      20.16
C       7.33       6.60      19.09
C       7.37       2.74      21.54
C       7.40       4.23      19.77
C       7.31       5.10      20.87
C      25.83      15.87      12.92
C      28.12      18.22      11.40
C      26.90      15.15      13.44
C      27.05      18.92      10.86
C      27.68      17.10      12.15
C      26.28      16.99      12.17
C      15.15       3.27       4.88
C      13.21       2.15       3.17
C      15.26       3.40       3.48
C      13.08       2.02       4.56
C      14.30       2.84       2.64
C      14.04       2.58       5.40
C      18.50       9.77       3.88
C      18.34      13.36       4.23
C      18.39       9.62       5.26
C      18.43      13.52       2.85
C      18.37      12.00       4.61
C      18.48      11.14       3.50
C       3.77       2.89       5.77
C       4.81       2.51       2.33
C       2.63       3.56       5.36
C       5.97       1.86       2.74
C       4.01       2.88       3.43
C       4.57       2.51       4.66
C      19.19      18.44      27.52
C      21.12      19.54      29.26
C      19.09      19.78      27.95
C      21.23      18.21      28.83
C      20.04      20.32      28.81
C      20.28      17.68      27.97
C      17.09      11.35      27.71
C      14.78       8.93      29.08
C      16.03      12.07      27.16
C      15.84       8.22      29.63
C      15.24      10.07      28.38
C      16.64      10.21      28.41
C      30.51      17.44      27.58
C      29.50      20.48      29.24
C      31.67      18.06      27.12
C      28.33      19.86      29.68
C      30.29      19.60      28.48
C      29.71      18.32      28.35
S      11.04       7.36      12.93
S      14.61       8.92      11.42
S      21.88      13.37      18.22
S      21.07      13.62      22.31
S       7.45       5.06      18.27
S       7.28       4.27      22.37
S      28.45      15.84      13.02
S      25.51      18.23      11.26
S      18.28      11.15       6.10
S      18.56      11.99       2.01
S       2.51       3.71       3.62
S       6.08       1.70       4.47
S      14.48      11.34      27.49
S      17.39       8.95      29.30
S      31.79      19.72      27.65
S      28.21      18.20      29.17
S      21.98      11.19      13.21
S      12.34      13.86      17.12
S      16.53       4.37       2.65
S      17.82      20.94      27.40
Br      12.80      11.44      13.28
Br      12.87       4.83      11.10
Br      24.26      12.00      21.74
Br      18.71      15.01      18.79
Br       7.13       7.84      21.75
Br      16.15      19.22      18.88
Br      24.01      15.49      13.09
Br      29.95      18.60      11.22
Br      18.65       8.42       2.60
Br      18.19      14.72       5.52
Br       4.29       2.49       7.53
Br       4.28       2.90       0.57
Br      18.92      11.75      27.59
Br      12.95       8.52      29.19
Br      29.96      15.67      27.26
Br      21.43       4.53      29.58
O       7.35      10.81      16.22
O       7.49       7.63      17.00
O       8.98      11.49      18.91
O      10.14      10.73      14.70
O       7.17       8.92      18.85
O       9.04       8.75      14.42
O       9.47      12.92      17.23
O       8.45      13.42      14.47
O      24.85      10.68      13.94
O      25.79      13.46      14.64
O      25.40       8.57      14.54
O      25.40      11.78      18.85
O      24.13      12.14      16.98
O      18.38       5.48       8.13
O      16.56       7.57       9.84
O      15.69       4.01       7.06
O      18.37       7.29       5.48
O      15.63       5.49       9.83
O      18.30       8.60       7.35
O      17.35       4.02       5.52
O      20.23       4.73       5.47
O      20.99       5.81      10.02
O      21.22       4.04       7.41
O      19.73       7.71      10.04
O      17.28       2.79       9.59
O      19.54       3.00       9.83
O      15.92      16.23      24.32
O      17.65      15.43      21.67
O      18.64      16.75      25.97
O      15.93      19.41      23.63
O      18.76      14.75      23.55
O      16.00      18.12      21.74
O      16.99      18.15      26.59
O      14.06      18.39      25.99
O      13.28      14.57      23.34
O      13.10      16.31      25.95
O      14.51      15.32      21.57
O      17.14      13.88      26.14
O      14.87      13.67      25.94
O      24.51      21.68      32.45
O      17.00       6.59      30.83
O      21.92      21.35      30.52
O      26.27      19.57      30.73
O      14.72       6.45      30.69
O      18.67       3.90      30.84
O      23.10      19.40      30.56
O      18.50      14.55       0.76
O      11.21       0.93       2.80
O      18.36      15.85       2.63
O      12.39       1.70       1.01
O       6.99       1.42       0.68
O       8.05       0.82       2.62
O      23.11      12.08      12.54
O      20.75      11.57      12.59
O      22.12      11.21      14.65
O      11.19      14.78      16.52
O      13.55      14.63      17.04
O      12.27      12.54      16.54
O      17.85       3.55       2.99
O      16.34       4.24       1.23
O      16.57       5.66       3.27
O      16.50      20.31      28.02
O       9.41       4.47      28.07
O      17.77      20.88      25.96
