202

Gd       7.28       4.20       4.01
Gd      14.56       8.41       4.01
Gd      14.56       8.41      12.04
Gd       7.28       4.20      12.04
Zn      10.92       6.31      16.05
Zn      18.20       6.31      16.05
Zn      14.56      12.61       0.00
Zn      14.56      12.61       8.03
Zn       3.64       6.31       8.03
Zn      10.92       6.31       8.03
H       8.57       5.76       0.80
H       5.29       4.54       0.80
H       7.99       2.31       0.80
H      13.28       6.85       0.80
H      16.56       8.07       0.80
H      13.86      10.30       0.80
H      15.27      10.30       7.22
H      15.85       6.85       7.22
H      12.57       8.07       7.22
H       6.58       2.31       7.22
H       5.99       5.76       7.22
H       9.27       4.54       7.22
H      13.28       6.85      15.25
H      16.56       8.07      15.25
H      13.86      10.30      15.25
H       8.57       5.76      15.25
H       5.29       4.54      15.25
H       7.99       2.31      15.25
H       6.58       2.31       8.83
H       5.99       5.76       8.83
H       9.27       4.54       8.83
H      15.27      10.30       8.83
H      15.85       6.85       8.83
H      12.57       8.07       8.83
H      10.71       2.37       2.48
H       7.16       8.09       2.48
H       3.98       2.16       2.48
H      11.14      10.25       2.48
H      14.69       4.52       2.48
H      17.87      10.46       2.48
H      11.26      10.46       5.55
H      17.99      10.25       5.55
H      14.44       4.52       5.55
H      10.59       2.16       5.55
H       3.86       2.37       5.55
H       7.40       8.09       5.55
H      11.14      10.25      13.58
H      14.69       4.52      13.58
H      17.87      10.46      13.58
H      10.71       2.37      13.58
H       7.16       8.09      13.58
H       3.98       2.16      13.58
H      10.59       2.16      10.50
H       3.86       2.37      10.50
H       7.40       8.09      10.50
H      11.26      10.46      10.50
H      17.99      10.25      10.50
H      14.44       4.52      10.50
H      11.41       3.50       3.68
H       5.83       8.14       3.68
H       4.60       0.98       3.68
H      10.43       9.12       3.68
H      16.02       4.48       3.68
H      17.24      11.63       3.68
H      11.88      11.63       4.35
H      18.69       9.12       4.35
H      13.11       4.48       4.35
H       9.96       0.98       4.35
H       3.15       3.50       4.35
H       8.73       8.14       4.35
H      10.43       9.12      12.37
H      16.02       4.48      12.37
H      17.24      11.63      12.37
H      11.41       3.50      12.37
H       5.83       8.14      12.37
H       4.60       0.98      12.37
H       9.96       0.98      11.71
H       3.15       3.50      11.70
H       8.73       8.14      11.70
H      11.88      11.63      11.71
H      18.69       9.12      11.70
H      13.11       4.48      11.71
C      10.10       4.41       2.23
C       5.70       6.55       2.23
C       6.05       1.66       2.23
C      11.74       8.21       2.23
C      16.15       6.07       2.23
C      15.80      10.95       2.23
C      13.33      10.95       5.79
C      17.38       8.21       5.79
C      12.98       6.07       5.79
C       8.52       1.66       5.79
C       4.46       4.41       5.79
C       8.87       6.55       5.79
C      11.74       8.20      13.82
C      16.15       6.07      13.82
C      15.80      10.95      13.82
C      10.10       4.41      13.82
C       5.70       6.55      13.82
C       6.05       1.66      13.82
C       8.52       1.66      10.26
C       4.46       4.41      10.26
C       8.87       6.55      10.26
C      13.33      10.95      10.26
C      17.38       8.21      10.26
C      12.98       6.07      10.26
C      10.50       3.24       3.12
C       6.51       7.47       3.12
C       4.84       1.90       3.12
C      11.35       9.37       3.12
C      15.34       5.14       3.12
C      17.01      10.71       3.12
C      12.12      10.71       4.91
C      17.78       9.37       4.91
C      13.79       5.14       4.91
C       9.72       1.90       4.91
C       4.07       3.24       4.91
C       8.06       7.47       4.91
C      11.35       9.37      12.94
C      15.34       5.14      12.94
C      17.01      10.71      12.94
C      10.50       3.24      12.94
C       6.51       7.47      12.94
C       4.84       1.90      12.94
C       9.72       1.90      11.14
C       4.07       3.24      11.14
C       8.06       7.47      11.14
C      12.12      10.71      11.14
C      17.78       9.37      11.14
C      13.79       5.14      11.14
O       8.75       6.31      16.05
O       4.72       4.42       0.00
O       8.37       1.88       0.00
O      13.10       6.30       0.00
O      17.12       8.19      16.05
O      13.47      10.73      16.05
O      15.66      10.73       8.03
O      16.03       6.30       8.03
O      12.00       8.19       8.03
O       6.19       1.88       8.03
O       5.81       6.31       8.03
O       9.84       4.42       8.03
O      11.00       4.81       1.46
O       4.89       7.12       1.46
O       5.95       0.68       1.46
O      10.84       7.80       1.46
O      16.95       5.49       1.46
O      15.90      11.94       1.46
O      13.23      11.94       6.56
O      18.29       7.80       6.56
O      12.17       5.49       6.56
O       8.61       0.68       6.56
O       3.56       4.81       6.56
O       9.67       7.12       6.56
O      10.84       7.80      14.59
O      16.95       5.49      14.59
O      15.90      11.94      14.59
O      11.00       4.81      14.59
O       4.89       7.12      14.59
O       5.95       0.68      14.59
O       8.61       0.68       9.49
O       3.56       4.81       9.49
O       9.67       7.12       9.49
O      13.23      11.94       9.49
O      18.29       7.80       9.49
O      12.17       5.49       9.49
O       8.91       4.85       2.34
O       5.91       5.29       2.34
O       7.03       2.47       2.34
O      12.94       7.76       2.34
O      15.94       7.33       2.34
O      14.81      10.14       2.34
O      14.32      10.14       5.69
O      16.19       7.76       5.69
O      13.19       7.33       5.69
O       7.53       2.47       5.69
O       5.66       4.85       5.69
O       8.66       5.29       5.69
O      12.94       7.76      13.71
O      15.94       7.33      13.71
O      14.81      10.14      13.71
O       8.91       4.85      13.71
O       5.91       5.28      13.71
O       7.03       2.47      13.71
O       7.53       2.47      10.37
O       5.66       4.85      10.37
O       8.66       5.28      10.37
O      14.32      10.14      10.37
O      16.19       7.76      10.37
O      13.19       7.33      10.37
O       9.43       2.96       4.01
O       7.28       6.69       4.01
O       5.13       2.96       4.01
O      12.41       9.65       4.01
O      14.56       5.93       4.01
O      16.71       9.65       4.01
O      12.41       9.65      12.04
O      14.56       5.93      12.04
O      16.71       9.65      12.04
O       9.43       2.96      12.04
O       7.28       6.69      12.04
O       5.13       2.96      12.04
