154

Zn       3.97       7.84       8.82
Zn      -2.06      27.73       9.34
Zn      19.94      29.12      11.55
Zn      18.72      28.01       8.82
Zn      19.94       9.64       0.81
Zn       3.97      23.32      17.34
Zn      18.72      12.54       0.29
Zn      -2.06      12.25       0.81
H      27.12      17.93      18.56
H       4.06      19.97      14.87
H      27.12       9.68      14.02
H       4.06      11.72      10.32
H      -1.52      15.80       2.92
H      18.18      16.22       2.16
H      -1.52      24.05       7.47
H      18.18      24.47       6.71
H      16.73       8.05       2.92
H      15.05      11.94       2.16
H       8.87       5.54       7.47
H       7.19       9.43       6.71
H       7.19      24.25      14.87
H       8.87      25.68      18.56
H      15.05      26.76      10.32
H      16.73      28.19      14.02
C       6.66       7.05       7.88
C      22.27      27.42      12.26
C      27.54       9.26      11.38
C      17.26      27.91      11.38
C       1.64       7.54       6.99
C      20.28      25.69       7.88
C       3.63      20.39      17.51
C       1.64      25.02      16.62
C      17.26      10.43       1.75
C      20.28      14.57       1.75
C      -1.64       9.94       2.63
C       6.66      24.53      17.51
C       0.80       8.15       5.88
C      -0.80       9.32       3.75
C      23.59       7.47       5.33
C       0.33      10.00       4.30
C      22.81       8.05       4.30
C       1.11       9.43       5.33
C      23.11      26.80      13.38
C       0.80      25.63      15.51
C      22.81      27.03      14.75
C       1.11      25.41      14.13
C      23.59      26.46      15.79
C       0.33      25.98      13.10
C       3.63      19.08      16.79
C      27.30      17.89      17.49
C      27.30      16.68      16.82
C      27.54      16.60      15.42
C       3.87      17.82      14.74
C       3.87      19.04      15.41
C      27.54      15.36      14.74
C      27.54      14.29      14.15
C      27.54      13.06      13.47
C      27.30      11.83      14.14
C      27.30      10.61      13.48
C      27.54      10.57      12.10
C       3.87      11.76      11.40
C       3.87      12.97      12.07
C      -3.63      15.88       2.47
C      -2.44      16.37       3.02
C      -2.45      17.59       3.69
C      -3.63      18.36       3.84
C      19.10      17.82       3.26
C      19.10      16.61       2.59
C      20.28      19.60       4.52
C      20.28      20.67       5.11
C      20.28      21.90       5.79
C      -2.45      22.44       6.37
C      -2.44      23.66       7.04
C      20.28      24.39       7.16
C      19.10      23.89       6.61
C      19.10      22.68       5.94
C      16.01      10.03       2.47
C      15.90       8.75       3.02
C      14.74       8.39       3.69
C      13.64       9.28       3.84
C      13.80      10.57       3.26
C      14.95      10.94       2.59
C      12.47       8.90       4.52
C      11.45       8.58       5.11
C      10.27       8.20       5.79
C      10.12       6.91       6.37
C       8.96       6.54       7.04
C       7.90       7.45       7.16
C       8.01       8.73       6.61
C       9.17       9.09       5.94
C       7.90      24.93      16.79
C       8.01      24.71      15.41
C       9.17      25.08      14.74
C      10.27      25.68      15.42
C      10.12      25.88      16.82
C       8.96      25.52      17.49
C      11.45      26.06      14.74
C      12.47      26.38      14.15
C      13.64      26.76      13.47
C      13.80      26.55      12.07
C      14.95      26.92      11.40
C      16.01      27.51      12.10
C      15.90      27.73      13.48
C      14.74      27.36      14.14
Br      23.04       5.76       5.95
Br       0.87      11.72       3.68
Br      21.34       7.00       3.68
Br       2.58      10.48       5.95
Br      21.34      28.10      15.31
Br       2.58      24.33      13.58
Br      23.04      26.86      17.57
Br       0.87      25.58      11.32
Br       4.20      17.82      12.88
Br      26.97      15.11      17.81
Br       4.20      14.55      11.07
Br      26.97      11.83      16.01
Br      17.47      18.77       3.40
Br      -0.82      18.21       4.42
Br      17.47      22.05       5.21
Br      -0.82      21.49       6.23
Br      12.40      11.83       3.40
Br      14.64       6.64       4.42
Br       9.27      10.84       5.21
Br      11.52       5.65       6.23
Br      11.52      26.68      17.81
Br       9.27      24.77      12.88
Br      14.64      27.67      16.01
Br      12.40      25.76      11.07
O      -3.63      28.87       9.63
O       5.74       7.93       7.97
O      -1.31      27.18      11.07
O      27.30       8.22      12.08
O       6.61       5.86       8.34
O       3.88       9.30      10.13
O      21.28      28.14      12.60
O      18.17      28.46      12.08
O      25.22       6.39       7.43
O      17.30      27.66      10.13
O       2.63       8.20       7.43
O      -2.51      26.10       8.34
O      19.16      26.30       7.97
O       3.63      23.57      19.26
O      27.30      20.35      18.76
O       2.63      24.30      16.29
O      17.30      11.62       1.29
O       3.88      21.43      16.81
O      18.17       9.54       1.66
O      25.22      25.26      17.82
O      19.16      14.17       1.29
O      -1.31      11.08       2.20
O      -2.51      13.97       1.66
O      21.28       9.28       2.20
O       5.74      23.98      16.81
O       6.61      24.78      18.76
