202

Zn      47.60      27.48      10.82
Zn      22.69      27.48      10.82
Zn      49.21      28.41      13.44
Zn      35.15       5.91      10.82
Zn      22.69      13.10       0.66
Zn      35.15      20.29      20.99
Zn      19.48      13.10       0.66
Zn      21.09      10.32       0.66
H      23.72       8.16       3.04
H      25.89      11.90       3.04
H      30.35       4.33       8.44
H      32.51       8.08       8.44
H      32.51      21.81      18.16
H      30.35      23.06      21.69
H      25.89      25.64      12.75
H      23.72      26.88      16.27
H      37.78      21.82      18.16
H      39.94      23.07      21.69
H      44.41      25.64      12.75
H      46.57      26.89      16.28
H      18.45       8.16       3.03
H      16.29      11.90       3.03
H      11.83       4.33       8.44
H       9.66       8.08       8.44
H      18.92      16.46       3.03
H      23.25      16.47       3.03
H      18.92      24.12       8.44
H      23.25      24.12       8.44
H      35.14      17.25      18.16
H      35.14      14.75      21.69
H      35.15       9.60      12.75
H      35.15       7.10      16.28
H      28.44      10.53       5.08
H      26.19       6.64       5.08
H      30.05       9.60       6.40
H      27.80       5.70       6.40
H      27.80      24.53      19.71
H      30.05      23.23      16.04
H      26.19      25.46      18.39
H      28.44      24.16      14.72
H      42.49      24.54      19.71
H      40.24      23.24      16.04
H      44.11      25.47      18.40
H      41.86      24.17      14.72
H      13.74      10.53       5.08
H      15.99       6.63       5.08
H      12.13       9.60       6.40
H      14.38       5.70       6.40
H      23.33      19.36       5.08
H      18.83      19.36       5.08
H      23.33      21.22       6.40
H      18.83      21.22       6.40
H      35.14      11.81      19.71
H      35.14      14.40      16.04
H      35.14       9.94      18.40
H      35.15      12.54      14.72
C      21.09      25.45       9.39
C      23.65      26.93      13.57
C      46.64      26.93      13.57
C      35.15       7.01      13.57
C      32.59       5.54       9.39
C       9.59       5.54       9.39
C      37.71      21.77      20.87
C      32.59      21.77      20.87
C      21.09      15.13       2.09
C      18.53      10.70       2.09
C      23.65      10.70       2.09
C      35.15      17.33      20.87
C      24.71      10.09       2.96
C      24.58       8.75       3.35
C      25.56       8.18       4.15
C      26.69       8.94       4.57
C      26.78      10.30       4.15
C      25.80      10.87       3.35
C      27.68       8.37       5.38
C      28.55       7.87       6.09
C      29.55       7.29       6.91
C      29.45       5.94       7.33
C      30.43       5.37       8.13
C      31.53       6.15       8.52
C      31.65       7.49       8.13
C      30.67       8.05       7.33
C      31.53      22.38      20.00
C      31.66      22.31      18.61
C      30.67      22.87      17.81
C      29.55      23.52      18.39
C      29.45      23.58      19.80
C      30.43      23.01      20.60
C      28.55      24.10      17.57
C      27.68      24.60      16.86
C      26.69      25.17      16.05
C      26.78      25.12      14.63
C      25.80      25.68      13.83
C      24.71      26.32      14.43
C      24.58      26.39      15.82
C      25.56      25.82      16.63
C      38.77      22.38      20.00
C      38.64      22.31      18.61
C      39.62      22.88      17.81
C      40.74      23.53      18.39
C      40.84      23.58      19.80
C      39.86      23.02      20.61
C      41.74      24.10      17.57
C      42.61      24.60      16.86
C      43.61      25.18      16.05
C      43.51      25.12      14.63
C      44.49      25.69      13.83
C      45.59      26.32      14.43
C      45.71      26.39      15.83
C      44.73      25.83      16.63
C      17.47      10.09       2.95
C      17.60       8.75       3.35
C      16.61       8.18       4.15
C      15.49       8.94       4.57
C      15.39      10.30       4.15
C      16.37      10.86       3.35
C      14.49       8.37       5.38
C      13.62       7.87       6.09
C      12.63       7.29       6.91
C      12.73       5.94       7.33
C      11.74       5.37       8.13
C      10.65       6.15       8.52
C      10.52       7.48       8.13
C      11.50       8.05       7.33
C      21.09      16.35       2.95
C      19.86      16.91       3.35
C      19.86      18.05       4.15
C      21.08      18.64       4.57
C      22.31      18.05       4.15
C      22.31      16.91       3.35
C      21.08      19.79       5.38
C      21.08      20.79       6.09
C      21.08      21.94       6.91
C      19.86      22.54       7.33
C      19.86      23.67       8.13
C      21.09      24.23       8.52
C      22.31      23.67       8.13
C      22.31      22.53       7.33
C      35.14      16.11      20.00
C      35.14      16.26      18.61
C      35.14      15.12      17.81
C      35.14      13.83      18.39
C      35.14      13.71      19.80
C      35.14      14.85      20.60
C      35.14      12.68      17.57
C      35.14      11.67      16.86
C      35.14      10.52      16.05
C      35.15      10.63      14.63
C      35.15       9.50      13.83
C      35.15       8.24      14.43
C      35.15       8.09      15.82
C      35.14       9.22      16.63
O      21.09      28.41      11.48
O      19.95      25.92       9.72
O      23.81      26.83      12.30
O      47.62      27.49      14.17
O      22.23      25.92       9.72
O      46.48      26.84      12.31
O      22.67      27.49      14.16
O      35.15       5.89      14.17
O      33.56       6.29       9.72
O      35.15       7.20      12.31
O      32.42       4.31       9.72
O       9.75       4.31       9.72
O       8.61       6.29       9.72
O      21.09      12.17       0.00
O      37.87      21.87      22.13
O      33.56      21.21      20.27
O      19.95      14.66       1.76
O      36.73      21.21      20.27
O      22.23      14.66       1.76
O      32.42      21.86      22.13
O      18.37      11.92       1.76
O      22.67       9.95       1.76
O      19.51       9.95       1.76
O      23.81      11.92       1.76
O      35.15      18.46      20.27
O      35.15      17.15      22.13
O      27.84      11.07       4.53
O      25.42       6.88       4.53
O      30.81       9.36       6.95
O      28.39       5.16       6.95
O      28.39      24.19      20.41
O      30.82      22.79      16.45
O      25.42      25.91      17.98
O      27.84      24.51      14.03
O      41.90      24.19      20.41
O      39.48      22.80      16.46
O      44.87      25.91      17.98
O      42.45      24.51      14.03
O      14.33      11.07       4.52
O      16.76       6.88       4.52
O      11.36       9.36       6.95
O      13.78       5.16       6.95
O      23.51      18.58       4.53
O      18.66      18.57       4.52
O      23.51      22.01       6.95
O      18.66      22.01       6.95
O      35.14      12.49      20.41
O      35.14      15.29      16.45
O      35.14       9.06      17.98
O      35.15      11.86      14.03
