72

Ag       3.30       3.33       1.27
Ag       8.90      11.74      11.19
H       5.76      11.83      10.27
H       6.44       3.24       2.18
H       3.82      10.33       9.98
H       8.39       4.74       2.47
H       6.42       7.00      10.87
H       5.78       8.07       1.58
H       8.28       8.65      11.18
H       3.93       6.42       1.28
H       3.08       7.92       9.54
H       9.12       7.15       2.92
H       4.17       6.57       9.99
H       8.03       8.50       2.46
H       8.81       6.21      10.65
H       3.39       8.86       1.80
H       8.74       5.97      12.43
H       3.46       9.10       0.02
H       2.81       4.70       9.27
H       9.39      10.37       3.18
H       7.59      13.99       9.22
H       4.61       1.08       3.24
H       6.21       9.98       0.87
H       5.99       5.09      11.58
H       1.43       0.69       1.11
H      10.77      14.38      11.34
H       2.23       3.62       5.80
H       9.97      11.45       6.65
H      10.74      11.96       4.30
H       1.46       3.11       8.15
C       5.88      10.75      10.41
C       6.32       4.32       2.05
C       4.79       9.91      10.24
C       7.41       5.16       2.21
C       4.96       8.53      10.40
C       7.24       6.54       2.05
C       6.24       8.07      10.73
C       5.96       7.00       1.72
C       7.27       8.98      10.89
C       4.93       6.09       1.56
C       3.82       7.57      10.27
C       8.39       7.50       2.18
C       9.40       5.98      11.56
C       2.80       9.09       0.90
C       2.61       4.69      11.43
C       9.59      10.39       1.02
C       3.04       4.18      10.20
C       9.17      10.89       2.25
C       3.73       2.97      10.16
C       8.48      12.11       2.30
C       7.11      14.19      12.45
C       5.09       0.88       0.01
C       1.74       0.32       0.13
C      10.46      14.75      12.33
C       1.46       2.39       3.51
C      10.74      12.68       8.95
C       1.01       2.09       4.92
C      11.19      12.98       7.54
C       1.51       2.83       6.00
C      10.69      12.24       6.45
C      11.12      12.52       5.16
C       1.08       2.55       7.30
S       2.95       7.43      11.89
S       9.25       7.64       0.57
N       7.11      10.30      10.74
N       5.09       4.77       1.72
N       7.52      13.70      11.26
N       4.68       1.37       1.19
O       2.51       3.13       3.40
O       9.69      11.94       9.06
O       0.78       1.92       2.55
O      11.42      13.15       9.91
