127

Al      -0.20       6.39      11.03
Al       3.10       6.46      11.06
Al       4.37       0.02       0.05
Al       1.05       0.03       0.08
H       0.09      15.50       4.81
H       0.05      17.42       3.21
H       2.81      14.32       3.40
H       0.08       8.87       7.72
H       2.85      10.22       9.08
H       2.91       9.20      14.09
H       0.16       7.57      15.00
H       1.91      10.93      15.61
H       0.16       8.73      17.21
H      -1.00      10.20      18.86
H       3.48       3.80       7.90
H      -0.50       5.17       7.04
H       4.69       2.36       6.26
H      -0.44       4.03       4.82
H       4.74       1.22       4.04
H       0.75       2.56       3.20
H       3.61      -3.45      20.12
H      -0.24      -4.64      18.66
H      -0.19      -2.78      16.99
H       3.56       1.75      15.64
H       3.52       3.74      14.11
H      -0.50       2.78      12.94
H      -0.46       0.76      14.43
H       2.87      -5.59      17.95
H       3.93      -1.25      20.37
H       1.72      15.36       1.75
H       1.88      17.13       1.70
H       2.70      16.17       0.50
H       1.27      11.29       4.27
H       3.02      13.41       7.91
H       2.26      12.63       6.53
H       1.82      12.12       8.18
H       1.40       8.13      10.72
H       4.70       4.92      10.17
H       0.41      11.49      20.97
H       4.99      -5.42      21.81
C       1.43       5.21       8.93
C       1.51       4.54      12.51
C       4.83       7.61      13.12
C       4.73       8.34       9.52
C      -0.77      15.66       4.16
C      -0.79      16.73       3.27
C       4.74      16.95       2.41
C       3.62      16.07       2.45
C       3.66      15.01       3.36
C       4.76      14.78       4.21
C       4.78      13.66       5.07
C       4.86      12.66       5.78
C      -0.71      10.59       6.71
C      -0.75       9.58       7.67
C       4.78       9.45       8.52
C       3.72      10.35       8.42
C       3.75      11.43       7.54
C       4.86      11.55       6.65
C       4.83       8.32      14.43
C       3.79      11.21      18.46
C       2.72      10.75      16.33
C       2.75      11.46      17.51
C      -1.80      10.35      18.14
C       4.86       9.67      16.90
C       3.76       9.84      16.00
C       3.76       9.12      14.78
C      -0.68       8.19      15.31
C      -0.68       8.84      16.53
C       1.49       4.54       7.60
C       2.74       1.83       3.50
C       3.83       2.41       5.58
C       3.86       1.78       4.36
C       1.60       2.53       3.87
C       1.55       3.22       5.10
C       2.68       3.16       5.98
C       2.62       3.84       7.22
C       0.37       4.60       6.72
C       0.41       3.97       5.50
C       2.82      -2.23      18.51
C       2.78      -3.27      19.44
C       1.67      -4.13      19.51
C       0.60      -3.96      18.62
C       0.64      -2.94      17.68
C       1.73      -2.04      17.61
C       1.69      -0.96      16.71
C       1.60      -0.00      15.96
C       2.68       1.98      15.04
C       2.66       3.08      14.19
C       1.51       3.37      13.43
C       0.38       2.54      13.53
C       0.40       1.42      14.36
C       1.55       1.13      15.12
C       1.63      -5.21      20.54
C       2.77       1.14       2.18
C       4.82      18.11       1.48
C       3.73      11.79      19.83
C       1.74      12.54      17.70
C       4.03      -1.34      18.45
C       2.41      16.19       1.56
C       0.46      10.54       5.79
C       2.65      12.44       7.54
O       2.61       5.15      12.35
O       0.28       5.59       9.33
O      -0.78       7.96      10.02
O       0.41       4.84      11.94
O      -0.68       7.13      12.72
O       2.53       5.34       9.57
O       1.43       7.26      11.15
O       3.73       7.55      12.49
O       3.58       7.87       9.81
O       4.74       5.62      10.84
O       1.68       1.09       1.53
O       2.73      -5.52      21.12
O       2.58      12.17      20.25
O       3.89       0.68       1.78
O       3.75      18.46       0.88
O       0.50      -5.73      20.77
O       0.44      12.06      21.76
O      -0.67      18.68       1.34
O      -1.82      11.81      20.52
O       6.02       0.86       0.22
O       0.53      12.40      17.65
O       2.34      13.76      17.82
O       4.57      -0.99      17.42
O       4.54      -0.96      19.66
O       1.37       9.71       5.88
O       0.46      11.47       4.79
