166

Zn      26.08       7.05      15.08
Zn      26.04      15.98       2.07
Zn      18.33      20.07      15.23
Zn      32.76      19.94      14.98
Zn      17.26       8.77       8.52
Zn      17.20      10.65       5.99
Zn      18.91      11.59       8.52
Zn      15.67      11.53       8.63
H      19.30       2.79       5.28
H      24.96      15.71       6.42
H      22.47      16.63       5.79
H      14.59       3.36       4.65
H      16.75       5.16       6.36
H      18.12       7.71       3.18
H      18.26       5.72       1.67
H      12.20       4.83      11.08
H      22.46      17.99      13.49
H      23.73      19.51      15.34
H      14.79       6.38      14.77
H      15.05       6.78      11.42
H      12.38      10.12      10.89
H      10.79       9.07      12.51
H      19.37       5.69      12.16
H      28.94      17.71      11.35
H      13.93      17.87      10.96
H      24.00       4.77      11.17
H      20.32       6.53      10.10
H      21.72      10.34      11.50
H      23.37       9.17      12.98
H      14.81      12.80       1.75
H      21.40      15.55      14.35
H      18.74      15.25      14.89
H      10.16      11.51       1.75
H      13.98      11.16       3.48
H      12.70      13.87       6.57
H      11.01      14.84       5.02
H      20.51      11.34       1.60
H      27.04      18.29      14.12
H      19.45       5.17      14.50
H      20.94      16.09       1.26
H      19.21      12.87       3.20
H      22.23      13.02       6.25
H      23.79      14.10       4.62
H      13.98      15.57      11.26
H      29.59      15.12      14.63
H      23.11      10.68       1.14
H       7.87      11.08       0.02
H      15.53      13.84      12.00
H      19.17      15.55      10.47
H      18.92      17.45      12.03
C      18.80       1.85       5.62
C      17.36       1.87       5.55
C      24.70      16.65       5.95
C      23.42      17.13       5.62
C      15.31       2.65       5.04
C      17.16       4.17       4.49
C      17.09       5.28       5.34
C      17.45       6.55       4.87
C      17.87       6.71       3.54
C      17.94       5.61       2.70
C      17.61       4.33       3.16
C      17.76       3.18       2.22
C      17.36       7.74       5.78
C      12.61       3.92      11.59
C      13.45       4.20      12.73
C      22.42      19.07      13.59
C      23.07      19.86      14.55
C      14.49       5.46      14.27
C      13.24       6.71      12.56
C      14.12       7.29      11.65
C      13.81       8.51      11.04
C      12.61       9.16      11.36
C      11.73       8.58      12.26
C      12.02       7.35      12.88
C      11.00       6.77      13.82
C      14.79       9.12      10.08
C      19.46       4.61      11.88
C      20.80       4.16      11.56
C      29.56      18.60      11.34
C      30.95      18.69      11.16
C      23.04       4.29      11.27
C      21.87       6.44      11.60
C      20.96       7.11      10.77
C      20.89       8.50      10.75
C      21.77       9.25      11.54
C      22.68       8.60      12.35
C      22.73       7.19      12.42
C      23.67       6.59      13.43
C      19.86       9.15       9.88
C      14.62      12.14       0.87
C      13.27      11.66       0.73
C      20.86      15.87      15.24
C      19.48      15.73      15.51
C      11.07      11.43       1.16
C      12.40      12.52       2.93
C      13.35      11.99       3.80
C      13.48      12.50       5.10
C      12.62      13.51       5.55
C      11.67      14.04       4.68
C      11.58      13.59       3.35
C      10.68      14.33       2.42
C      14.57      11.96       5.97
C      19.91      11.66       0.71
C      19.91      13.08       0.46
C      27.59      18.71      14.96
C      27.96      20.06      15.15
C      20.51      15.24       0.75
C      21.10      13.70       2.58
C      20.23      13.11       3.50
C      20.63      12.85       4.81
C      21.92      13.21       5.22
C      22.79      13.81       4.31
C      22.40      14.04       2.98
C      23.44      14.64       2.07
C      19.66      12.22       5.76
C      13.22      15.34      12.04
C      13.68      15.39      13.41
C      30.65      15.31      14.59
C       5.65      10.66       0.08
C      15.09      15.79      15.12
C      16.10      15.72      12.87
C      16.25      14.65      11.99
C      17.33      14.60      11.10
C      18.31      15.59      11.14
C      18.17      16.66      12.02
C      17.05      16.76      12.86
C      16.90      18.01      13.69
C      17.38      13.47      10.12
N      16.65       2.93       4.99
N      13.68       5.50      13.18
N      21.91       5.03      11.52
N      12.25      11.93       1.65
N      20.59      13.98       1.29
N      15.01      15.69      13.76
O      17.87       0.28       0.11
O      27.74      16.62       6.01
O      18.11       2.06       2.73
O      17.56       3.41       0.98
O      17.56       8.88       5.24
O      17.10       7.52       7.01
O      20.61      18.53      11.16
O      11.15       5.55      14.16
O      10.05       7.54      14.18
O      14.51      10.28       9.64
O      15.81       8.42       9.78
O      18.47       3.88      11.88
O      23.37       5.47      13.94
O      24.70       7.30      13.71
O      19.95      10.41       9.72
O      18.97       8.38       9.39
O      15.53      11.88       0.08
O      11.12      14.57       1.25
O       9.56      14.70       2.90
O      14.58      12.31       7.20
O      15.41      11.18       5.40
O      19.32      10.82       0.03
O      23.46      14.28       0.85
O      24.25      15.45       2.64
O      20.03      12.09       6.98
O      18.54      11.87       5.26
O      29.77      15.07      11.71
O      15.73      18.48      13.83
O      17.99      18.49      14.13
O      18.49      13.22       9.55
O      16.27      12.86       9.94
O      17.28      10.65       7.94
