46

Al      -2.64       4.25       6.02
Al       0.66       4.29       6.05
H      -1.04       5.15       7.56
H       2.24       2.65       5.37
H       0.38       7.24       4.27
H      -1.17       8.61       2.94
H       3.76       1.59       4.20
H       2.01       0.49       2.88
H      -1.04       4.23      10.71
H       2.42       4.28       1.38
C       2.40       6.64       5.83
C       2.30       4.10       8.43
C      -1.06       1.85       6.08
C      -0.95       4.46       3.66
C      -2.95       3.91      10.61
C       4.32       4.62       1.48
C       2.48       3.79       9.85
C      -1.11       4.75       2.24
C       4.52       5.10       0.16
C      -3.15       3.43      11.93
C       2.44       8.14       5.80
C       1.49       8.92       5.06
C      -3.17       8.78       6.53
C       0.47       8.32       4.27
C      -0.39       9.09       3.53
C      -1.09       0.37       5.91
C      -0.19      -0.42       6.59
C       4.51      -0.26       5.09
C       3.64       0.51       4.26
C       2.67      -0.11       3.50
S       1.17       3.05      10.74
S       0.20       5.49       1.35
O       3.48       6.04       5.54
O       1.13       3.95       7.93
O       0.05       2.44       5.87
O      -1.97       4.00       4.27
O      -2.16       2.41       6.39
O       0.19       4.69       4.20
O       1.31       6.09       6.18
O       3.33       4.50       7.81
O      -0.99       4.86       6.63
O       2.29       3.62       5.49
O      -1.80       4.44      10.12
O       3.18       4.08       1.96
F       0.76       0.12       7.40
F      -2.27       8.09       7.27
