142

Al       7.25      14.30      10.77
Al       1.34       6.31      21.63
Al       3.95      14.31      10.77
Al       4.62       6.27      21.62
H       2.77      13.90      17.38
H       4.24       6.96       6.37
H       2.66       8.34      17.46
H       5.85      12.26       6.65
H       2.79       8.23      15.56
H       6.25      12.33       4.80
H       4.44      17.95      12.44
H       3.61       2.54       1.88
H       4.99       3.62      18.56
H       3.48      17.13       7.96
H       6.97      17.30      13.74
H       0.93       3.86       3.11
H       3.22      10.71      20.97
H       5.18       9.83      10.10
H       4.61      19.92      13.95
H       3.74       0.66       3.53
H       4.96       1.81      16.82
H       3.41      19.18       6.48
H       0.77       1.17      17.55
H       7.65      19.69       6.99
H       4.55       0.01      15.62
H       2.80       0.75       5.56
H       0.81       2.99      19.30
H       1.13      17.66       8.50
H       2.83      13.90      21.57
H       4.96       6.63      10.57
H       2.16      10.13      11.77
H       6.38      10.45       0.97
H       2.49       8.07      13.13
H       6.63      12.49       2.38
H       7.42      14.98      13.84
H       3.31       5.14       3.90
H       5.57      13.82      12.46
H       2.24       6.72       1.72
H       2.29      13.56       9.20
H       6.29       6.94      20.00
C       5.53      12.39       9.30
C       3.04       8.16      20.09
C       5.66      16.07       9.17
C       2.90       4.52      20.01
C       2.39      16.27      12.17
C       5.47       4.48       1.49
C       2.24      12.60      12.49
C       5.57       8.09       1.60
C       3.00      11.83      19.15
C       5.06       8.79       8.22
C       2.97       9.41      19.27
C       5.49      11.17       8.43
C       2.28      10.20      12.85
C       6.07      10.43       2.01
C       2.47       9.04      13.62
C       6.25      11.56       2.82
C       2.63       9.14      14.99
C       6.01      11.47       4.17
C       2.61      10.39      15.65
C       5.51      10.29       4.76
C       2.46      11.58      14.87
C       5.17       9.18       3.92
C       2.75      10.48      17.09
C       5.40      10.18       6.21
C       2.85      11.76      17.72
C       5.06       8.92       6.79
C       2.72      12.92      16.91
C       4.64       7.87       5.92
C       2.48      12.84      15.57
C       4.59       8.02       4.56
C       2.78       9.33      17.90
C       5.62      11.28       7.06
C       3.09      10.66      19.90
C       5.24       9.91       9.02
C       2.30      11.45      13.45
C       5.55       9.26       2.54
C       2.90       3.41      19.01
C       5.60      17.28       8.29
C       1.71       2.72      18.74
C       6.78      18.00       8.04
C       1.68       1.72      17.78
C       6.76      19.11       7.21
C       2.86       1.41      17.08
C       5.54      19.52       6.64
C       4.06       2.07      17.37
C       4.35      18.83       6.93
C       4.08       3.08      18.33
C       4.38      17.70       7.74
C       3.70      19.33      13.91
C       4.55       1.39       3.45
C       3.60      18.25      13.06
C       4.48       2.42       2.52
C       2.62      19.67      14.76
C       5.66       1.25       4.30
C       2.42      17.50      13.01
C       5.54       3.33       2.43
C       1.32      17.87      13.78
C       6.68       3.16       3.22
C       1.40      18.97      14.64
C       6.78       2.11       4.14
C       6.75      19.32      15.42
C       1.53       2.02       4.85
C       3.08      13.13      19.87
C       4.84       7.48       8.90
C       2.19      14.15      14.90
C       3.66       7.02       3.92
N       2.91       0.43      16.06
N       5.45      20.62       5.75
N       2.65      20.64      15.76
N       5.70       0.24       5.26
O       4.60      15.38       9.31
O       3.99       5.15      20.19
O       6.61      13.05       9.40
O       1.96       7.49      20.21
O       1.14      12.79      11.87
O       6.69       7.88       1.03
O       6.78      15.80       9.71
O       1.79       4.77      20.59
O       1.30      15.59      12.10
O       6.53       5.16       1.34
O       4.42      12.67       9.86
O       4.17       7.88      20.61
O       5.60      14.33      11.63
O       2.23       6.34       0.81
O       3.47      15.95      11.59
O       4.35       4.71       0.92
O       3.31      13.26      12.29
O       4.51       7.42       1.42
O       2.31      14.21       9.91
O       6.27       6.34      20.77
O       6.11      18.50      16.06
O       6.37      20.61      15.25
O       2.30       2.97       4.91
O       1.83       0.79       5.31
O       3.42      14.21      19.41
O       2.72      13.00      21.19
O       4.46       6.43       8.39
O       5.13       7.54      10.24
O       2.96      15.09      14.84
O       7.50      14.18      14.42
O       2.58       7.34       3.43
O       4.06       5.75       4.11
