142

Zn       9.01       5.14      12.95
Zn       1.67       1.01       0.45
Zn       9.08      14.10       0.45
Zn      16.39       0.96       0.50
Zn      17.99      10.53       9.29
Zn      16.39       9.66       6.68
Zn      19.60       9.61       6.70
Zn      18.04      12.40       6.74
H      13.95       5.72      12.31
H      16.30       6.28       9.69
H      16.00       5.43      11.22
H      16.90       6.97      11.21
H      13.05       9.91       9.85
H      10.70       9.37      12.46
H      10.10       8.65      10.96
H      10.98      10.20      10.91
H      15.97      16.45      12.39
H      15.24      14.10       9.81
H      14.67      14.81      11.34
H      15.55      13.26      11.33
H      20.01      15.09       9.88
H      20.75      17.41      12.47
H      20.42      18.28      10.97
H      21.31      16.74      10.92
H      24.04       9.20      12.49
H      22.48      11.10       9.90
H      23.36      11.18      11.44
H      21.57      11.23      11.41
H      20.88       6.50       9.82
H      22.42       4.61      12.43
H      23.34       4.47      10.93
H      21.55       4.52      10.88
H      13.49      12.81       1.15
H      16.57      11.82       2.61
H      15.45      11.53       1.27
H      15.43      10.47       2.71
H      13.67      13.83       5.98
H      10.59      14.82       4.53
H      11.73      16.17       4.42
H      11.72      15.13       5.87
H      17.47       3.06       4.51
H      18.25       5.41       7.05
H      17.39       3.90       6.70
H      16.51       5.45       6.76
H      18.44       7.54       2.66
H      17.70       5.16       0.12
H      19.44       5.21       0.42
H      18.49       6.71       0.47
H      22.08      13.70       1.22
H      19.71      11.41       2.62
H      20.03      12.55       1.29
H      19.14      13.07       2.75
H      22.99      12.68       5.98
H      25.37      14.96       4.59
H      25.93      13.29       4.46
H      25.04      13.81       5.91
C      11.50       6.65      12.80
C      12.52       7.28      11.91
C      13.76       6.65      11.76
C      14.76       7.16      10.93
C      16.06       6.42      10.76
C      14.48       8.36      10.25
C      13.24       8.99      10.39
C      12.24       8.48      11.23
C      10.94       9.21      11.40
C      15.50       9.01       9.38
C      18.00      18.10      12.83
C      18.03      16.89      11.96
C      16.86      16.13      11.83
C      16.79      15.00      11.02
C      15.49      14.25      10.87
C      17.95      14.64      10.32
C      19.13      15.40      10.44
C      19.20      16.52      11.26
C      20.49      17.28      11.41
C      17.98      13.44       9.44
C      24.40       6.60      12.88
C      23.37       7.22      12.00
C      23.33       8.62      11.90
C      22.44       9.28      11.06
C      22.47      10.78      10.95
C      21.55       8.48      10.31
C      21.58       7.09      10.42
C      22.48       6.43      11.26
C      22.44       4.93      11.38
C      20.52       9.09       9.42
C      11.59      14.52       1.86
C      12.61      13.91       2.77
C      13.54      13.02       2.22
C      14.53      12.42       2.99
C      15.54      11.51       2.36
C      14.55      12.72       4.37
C      13.62      13.61       4.91
C      12.63      14.22       4.14
C      11.62      15.14       4.77
C      15.54      12.08       5.28
C      17.97       2.96       1.90
C      17.96       4.19       2.75
C      17.69       4.05       4.11
C      17.69       5.15       4.98
C      17.44       4.96       6.45
C      17.97       6.41       4.42
C      18.24       6.55       3.06
C      18.24       5.45       2.19
C      18.48       5.65       0.72
C      17.98       7.64       5.28
C      24.52      14.45       1.94
C      23.51      13.81       2.83
C      22.27      13.47       2.28
C      21.27      12.84       3.03
C      19.97      12.45       2.38
C      21.56      12.57       4.38
C      22.80      12.91       4.93
C      23.80      13.53       4.18
C      25.10      13.92       4.82
C      20.53      11.96       5.27
O       9.03       5.14      14.90
O      11.85       6.42      14.01
O      10.37       6.38      12.27
O      15.16       9.31       8.19
O      16.64       9.25       9.92
O      17.64      17.94      14.04
O      18.34      19.20      12.28
O      18.43      13.59       8.25
O      17.58      12.34       9.95
O      24.45       6.98      14.10
O      25.17       5.73      12.33
O      20.47       8.67       8.22
O      19.77       9.98       9.94
O      10.87      13.71       1.18
O      11.53      15.79       1.82
O      16.29      12.87       5.96
O      15.55      10.81       5.32
O      16.92       2.25       1.90
O      19.04       2.73       1.24
O      19.07       8.30       5.33
O      16.89       7.93       5.88
O      24.15      15.48       1.28
O      25.68      13.91       1.89
O      20.86      10.91       5.92
O      19.40      12.56       5.33
O      18.01      10.54       7.34
