80

Zn       1.86       5.13       8.38
Zn       4.59       5.35       8.60
H       1.75       5.80       1.63
H       4.51       2.28      15.05
H       5.47       2.41      16.54
H       5.96       4.38      15.10
H       5.10       4.90      16.57
H       5.33       9.23       1.92
H       6.10       8.91       3.49
H       7.10       9.23       2.06
H       7.09       6.77       2.51
H       6.30       7.11       0.98
H       6.51      10.55       7.33
H       0.97       6.68      15.10
H       6.25       8.86       7.81
H       6.83       9.24       6.17
H       4.41       8.64       6.14
H       4.65      10.31       5.63
H       3.19       0.45      12.23
H       3.42       2.08      11.56
H       1.99       1.73      12.56
H       1.34       1.77      10.14
H       1.15       0.13      10.79
H       1.57       5.29       4.09
H       1.06       6.49      12.60
H       5.05       1.29       7.07
H       1.49       9.20       9.94
H      -0.09       6.70       9.71
H       6.53       3.85       7.18
H       3.74       2.82      16.56
C       3.49       2.67       8.66
C       7.22       4.47       7.75
C       3.44       5.32       5.92
C       2.95       5.39      11.09
C       3.63       5.72       4.49
C       2.94       5.44      12.59
C       4.83       6.21       3.93
C       3.97       4.90      13.38
C       4.97       6.54       2.57
C       3.93       4.97      14.78
C       3.84       6.31       1.74
C       3.06       7.82       8.37
C       2.82       5.62      15.38
C       2.61       5.92       2.30
C       1.80       6.18      14.60
C       2.51       5.62       3.64
C       1.86       6.08      13.22
C       4.48       0.62       7.71
C       2.08       9.87       9.31
C       5.00       4.33      15.63
C       4.66       2.87      15.96
C       6.21       7.24       2.07
C       3.75      10.13       7.55
C       6.18       8.74       2.41
C       4.71       9.63       6.49
C       6.16       9.57       6.98
C       1.89       0.90      10.53
C       2.67       1.31      11.79
C       2.81       0.35       9.46
C       2.97       9.31       8.39
C       3.59       1.18       8.63
C       7.50       6.18       9.28
C      -1.06       4.35       7.64
C      -0.78       6.06       9.16
N       3.81       6.43       0.33
N       2.81       5.59      16.79
N      -0.24       5.14       8.35
N       6.69       5.38       8.58
Cl       5.28       4.05      12.63
Cl       6.23       6.48       4.95
Cl       6.84       7.34      10.33
Cl      -0.39       3.19       6.59
O       2.34       3.17       8.41
O       4.19       7.28       8.12
O       4.55       3.32       8.91
O       1.99       7.16       8.62
O       2.26       5.43       6.38
O       4.04       5.70      10.52
O       4.45       4.90       6.58
O       1.86       5.06      10.51
