138

Mg      -0.86      17.75       9.04
Mg       1.59      -0.58      20.63
Mg       1.41      16.05       9.72
Mg      -0.69       1.05      19.81
Mg       3.69      17.49      10.86
Mg       3.87      -0.48      18.81
H      -1.19      24.23      16.20
H      -2.76      22.38      15.55
H       1.01      25.31      14.76
H       4.79      -7.11      15.38
H       0.32      23.75      13.63
H      -1.99      22.74      12.92
H       3.86      21.04      11.41
H       1.76      20.62      12.80
H      -0.91      -6.16      16.75
H       2.74      -5.96      17.40
H       3.73      -3.99      18.57
H      -1.06      -3.93      17.30
H       1.09      19.01       0.53
H      -0.48      19.38       2.46
H       3.29      17.23       0.31
H       2.52      -0.24      28.08
H       2.60      17.03       2.23
H       0.29      16.92       3.46
H      -0.70      16.46       5.69
H       4.04      17.87       5.36
H       3.65       0.47      26.58
H       0.46       0.94      26.08
H       1.45       0.97      23.79
H       3.50      -0.16      24.37
H       3.37       8.05      12.89
H       1.80       9.53      11.61
H      -1.27       8.75      14.54
H       0.24       7.33      15.78
H      -1.96      10.51      13.76
H       2.57      11.63      13.23
H       1.58      13.79      12.52
H      -0.52      12.81      11.46
H       1.37       5.67      15.91
H      -1.82       5.01      15.76
H      -0.83       3.01      16.88
H       1.22       4.07      17.57
C       0.64      -7.37      16.24
C      -0.35      -8.41      15.83
C      -2.20      24.45      15.87
C      -3.07      23.43      15.51
C       2.46      23.71      15.07
C       2.03      25.04      15.04
C       5.17      -8.13      15.43
C       1.65      22.53      14.63
C      -0.03      21.80      12.97
C      -1.37      21.91      12.57
C      -1.93      20.96      11.72
C      -1.19      19.85      11.24
C       0.18      19.77      11.65
C       0.72      20.73      12.50
C       1.09      18.69      11.23
C       0.76      -5.10      17.29
C       2.13      -5.09      17.63
C       2.68      -3.99      18.28
C       1.91      -2.86      18.64
C       0.54      -2.86      18.25
C      -0.00      -3.97      17.58
C      -0.37      -1.73      18.52
C      -1.63       0.64      27.88
C      -2.62       0.81      28.99
C       0.07      18.62       0.51
C      -0.79      18.82       1.57
C       4.74      18.29       1.55
C       4.31      17.60       0.41
C       2.90       0.31      28.95
C       3.93      18.50       2.79
C       2.25      17.43       4.25
C       0.90      17.03       4.36
C       0.35      16.77       5.61
C       1.09      16.90       6.80
C       2.46      17.30       6.67
C       3.00      17.55       5.41
C       3.37      17.47       7.81
C      -1.52       0.41      25.39
C      -0.15       0.71      25.21
C       0.40       0.72      23.93
C      -0.37       0.46      22.77
C      -1.75       0.12      22.97
C      -2.28       0.10      24.26
C       4.18      -0.21      21.85
C       2.92       6.71      15.12
C       1.93       7.58      14.42
C       2.35       8.22      13.24
C       1.49       9.05      12.54
C       0.18       9.29      13.00
C      -0.25       8.65      14.17
C       0.61       7.80      14.86
C      -0.63      10.26      12.20
C       4.52      12.06      12.40
C       3.18      12.36      12.69
C       2.62      13.57      12.29
C       3.36      14.54      11.58
C      -2.10      14.22      11.30
C      -1.56      13.00      11.71
C      -1.18      15.12      10.58
C       3.04       4.67      16.56
C       4.41       4.37      16.40
C      -1.88       3.26      17.03
C       4.19       2.38      17.83
C       2.81       2.72      18.03
C       2.27       3.85      17.39
C       1.90       1.92      18.87
N       0.58      22.78      13.80
N       0.10      -6.20      16.72
N       2.86      17.65       2.99
N      -2.17       0.47      26.63
N      -1.70      10.86      12.84
N       2.38       5.71      15.89
O       2.27      18.63      11.70
O       0.68      17.83      10.35
O      -1.79      18.95      10.43
O      -1.56      -1.71      18.05
O       0.05      -0.77      19.27
O       2.50      -1.86      19.32
O       1.86      -7.58      16.17
O       1.99      21.38      14.94
O       4.55      17.91       7.64
O       2.96      17.15       8.99
O       0.49      16.65       7.99
O       3.00      -0.62      22.07
O      -2.23      -0.04      20.64
O       0.22       0.55      21.57
O      -0.41       0.68      28.09
O       4.27      19.35       3.63
O      -0.01      14.75      10.28
O      -1.60      16.31      10.27
O       2.77      15.68      11.20
O       0.72       2.32      19.12
O       2.33       0.79      19.33
O      -2.06       1.29      18.35
O       4.14       6.88      14.98
O      -0.28      10.57      11.05
