170

Al      11.15       6.62      14.36
Al       7.94       6.47      14.31
Al       9.46       3.88      14.32
Al       1.50       0.88       0.00
Al       3.16       3.63       0.02
Al       4.71       1.06       0.03
H       5.93       5.94       6.31
H      13.28       5.85       8.41
H      11.23       9.27       8.59
H      11.49       9.69       6.16
H       7.23       9.33       5.66
H       8.16       2.56      20.39
H       7.87       2.40      22.86
H       4.49       5.08      22.64
H       4.78       5.24      20.18
H      14.59       3.47      19.85
H       4.37       4.54       8.24
H       2.37       3.43      22.29
H      10.81       3.79      23.09
H      10.36       3.83      20.64
H       7.67      10.50      20.14
H       7.88      11.00      22.58
H      11.36       8.46      22.78
H       8.41       2.80       6.10
H       4.51       2.20       6.64
H      11.60       2.02       5.72
H      13.72       5.77       5.94
H       6.58       8.02      10.20
H       6.44       9.77      10.04
H       5.04       8.73       9.69
H       5.84       9.36       7.54
H       6.30       7.69       7.77
H      13.21       8.06      21.32
H      12.30       6.62      21.84
H      13.26       6.56      20.36
H      10.85       6.79      19.78
H      11.76       8.15      19.21
H       9.70       5.04       5.89
H       8.61       6.45       5.87
H      10.15       6.53       6.74
H       8.30       6.20       8.40
H       9.34       4.78       8.37
H       7.23       0.36       6.01
H      14.03       9.22       6.63
H      14.11       8.55       9.04
H      13.60      10.23      10.80
H       6.81       1.37      10.18
H       9.95       0.82       6.69
H      11.51       0.12       7.13
H      16.30      11.01       8.14
H      11.48       1.49       9.29
H       9.99       2.23       8.79
H      13.13       7.59      13.58
H      18.55      11.04      27.82
C       9.26       7.98      12.41
C       6.94       4.07      11.13
C       5.34       2.87       6.88
C       6.21       3.64       5.80
C       6.66       2.41       7.63
C       6.56       3.72       8.54
C       7.51       3.20       6.58
C       7.45       4.49       7.44
C       5.98       3.55       4.40
C       6.76       3.87       9.93
C      11.80       4.09      11.04
C       7.36       4.37      12.46
C      11.70       2.88       7.69
C      11.95       2.86       6.32
C      13.16       4.98       6.44
C      12.92       5.02       7.80
C      12.21       3.98       8.44
C      12.68       3.88       5.69
C      12.99       3.76       4.31
C      12.00       4.04       9.84
C      13.28       3.58       3.15
C       9.18       8.51      11.08
C      11.40       4.33      12.39
C      10.36       9.28       7.94
C      10.51       9.51       6.58
C       8.10       9.31       6.32
C       7.92       9.04       7.68
C       9.08       9.04       8.50
C       9.37       9.54       5.75
C       9.50       9.82       4.38
C       9.07       8.76       9.89
C       9.63      10.10       3.20
C       6.90       4.14      17.53
C       9.24       7.99      16.23
C       7.36       3.12      20.89
C       7.20       3.03      22.27
C       5.29       4.53      22.15
C       5.45       4.62      20.77
C       6.49       3.92      20.12
C       6.17       3.73      22.92
C       5.98       3.61      24.32
C       6.69       4.03      18.72
C       5.80       3.48      25.52
C      11.91       3.88      17.52
C       7.37       4.39      16.19
C      13.77       3.53      20.56
C      14.02       3.52      21.92
C      11.63       3.72      22.37
C      11.38       3.73      21.01
C      12.44       3.65      20.08
C      12.96       3.62      22.85
C      13.23       3.59      24.24
C      12.17       3.74      18.70
C      13.49       3.55      25.42
C       9.19       8.58      17.54
C      11.44       4.25      16.21
C       8.48      10.06      20.73
C       8.59      10.33      22.08
C      10.56       8.89      22.19
C      10.45       8.60      20.83
C       9.39       9.19      20.09
C       9.64       9.75      22.83
C       9.74      10.02      24.21
C       9.26       8.90      18.72
C       9.78      10.28      25.40
C      13.81       3.19       1.87
C       5.27       4.16       7.75
C       5.24       3.18       1.89
C       9.65      10.68       1.88
C      13.94       3.29      26.76
C       5.36       3.17      26.85
C       9.69      10.80      26.74
C       6.13       4.93       6.70
C       5.73       3.45       3.21
C       6.51       8.71       8.12
C       6.13       8.81       9.60
C      11.42       7.67      20.13
C      12.61       7.20      20.97
C       8.62       5.36       7.76
C       9.31       5.87       6.50
C       6.97       1.03       8.05
C       7.25       0.07       7.06
C      13.81       9.95       7.41
C      13.86       9.57       8.76
C      13.57      10.51       9.75
C       7.02       0.64       9.40
C      10.92       1.80       8.39
C      10.60       0.58       7.54
O      11.79       5.41      12.93
O       6.99       5.47      15.62
O       8.20       3.55      15.70
O      10.72       3.37      15.59
O       9.50       5.64      14.32
O       8.53      10.88       1.34
O      13.59       2.01       1.49
O      14.51       4.08       1.24
O       4.38       4.01       1.41
O       5.64       2.12       1.31
O      10.80      11.00       1.40
O      10.41       7.72      12.87
O       8.53      11.11      27.13
O      13.55       2.22      27.31
O      14.77       4.14      27.27
O       4.61       4.03      27.43
O       5.70       2.03      27.33
O      10.78      10.95      27.40
O       3.14       1.87       0.01
O       8.13       7.77      13.00
O       7.02       5.50      12.95
O       8.11       3.50      13.05
O      10.63       3.45      12.93
O      11.73       5.40      15.80
O      10.38       7.73      15.77
O       8.11       7.74      15.66
O      12.65       7.52      14.41
O       6.24      11.15       0.01
