190

Zn      12.51      17.72       0.70
Zn      30.93      17.72       0.74
Zn      21.65      12.49      15.91
Zn      21.78       1.66       0.70
Zn      30.93       7.04       8.32
Zn      12.53       7.04       8.30
Zn      10.96       4.27       8.33
Zn      32.50       6.18      10.92
H      32.27      14.94       4.14
H      12.68      13.62       2.27
H      13.01      14.33       3.86
H      12.56      11.63       3.64
H      10.07      11.28       3.11
H      30.50      13.75       2.95
H      10.01      13.24       1.68
H      30.95      13.12       5.36
H      30.47      10.42       5.16
H      30.82      11.13       6.74
H      11.21       9.79       4.86
H      33.50      11.48       7.32
H      12.99      10.96       6.05
H      33.44      13.44       5.91
H      24.68       9.17      14.64
H      26.81      10.91      15.98
H      26.53       9.19      16.25
H      28.46      10.01      14.48
H      27.29      11.00      12.42
H      24.57      10.78      12.81
H      25.51      11.97      13.72
H      25.58       8.54      12.20
H      27.56       9.40      10.49
H      27.27       7.67      10.72
H      29.36       9.38      12.15
H      28.48       6.57      12.98
H      29.43       7.72      13.94
H      26.71       7.57      14.29
H       4.55       2.55       2.05
H       4.15       0.25       4.03
H       5.51       0.46       2.92
H       5.71       1.30       5.53
H      25.87       3.39       5.82
H      24.67       3.92       3.39
H      24.16       2.52       4.35
H       5.49       4.60       3.37
H      27.32       5.46       5.97
H      28.69       5.65       4.87
H      28.25       3.36       6.85
H       8.67       3.39       4.58
H       8.15       1.99       5.53
H       6.98       2.52       3.10
H      38.90      11.45      14.72
H      39.32       8.74      16.09
H      37.97       9.86      16.34
H      37.72       7.77      14.57
H      17.53       8.29      12.51
H      18.76      10.72      12.92
H      19.27       9.30      13.85
H      16.31      11.04      12.35
H      16.07       8.97      10.55
H      14.70      10.06      10.83
H      15.19       7.36      12.19
H      34.76       9.46      13.03
H      35.28       8.05      13.97
H      36.47      10.50      14.39
H      18.81       1.78       4.29
H      16.67       0.95       2.26
H      16.99       0.19       3.82
H      15.00       2.07       3.58
H      16.11       4.36       3.25
H      18.84       4.00       3.29
H      17.88       3.45       1.90
H      17.87       3.86       5.63
H      15.86       5.72       5.37
H      16.17       4.97       6.94
H      14.08       4.10       4.89
H      15.00       2.47       7.31
H      14.05       1.89       5.93
H      16.78       1.56       5.95
H      31.28      -1.84      14.96
H      12.04      -2.94      13.38
H      10.35      -2.90      12.85
H      12.06      -0.89      12.09
H      12.59       0.53      14.16
H      32.86      -0.55      16.30
H      12.62      -1.41      15.60
H      31.28       0.74      14.77
H      33.00       2.75      14.02
H      31.32       2.79      13.47
H      12.09       1.65      11.92
H      30.75       1.27      11.26
H      10.50       0.39      10.56
H      30.75      -0.68      12.69
C      10.94      15.73       2.22
C      10.93      14.54       3.15
C      12.26      13.78       3.28
C      11.87      12.44       3.91
C      10.35      12.23       3.58
C       9.91      13.45       2.76
C      31.63      12.30       5.10
C      31.23      10.97       5.73
C      10.93      10.19       5.85
C      11.96      11.27       6.24
C      11.53      12.50       5.43
C      10.91       9.00       6.78
C      24.11      10.86      15.75
C      25.12      10.16      14.86
C      26.51       9.98      15.48
C      27.42       9.69      14.29
C      26.71      10.29      13.03
C      25.39      10.89      13.53
C      26.61       8.87      12.41
C      27.56       8.59      11.24
C      28.93       8.39      11.89
C      28.62       7.64      13.20
C      27.31       8.27      13.68
C      29.98       7.72      11.03
C       2.82       1.35       1.94
C       3.92       1.99       2.76
C       4.80       1.01       3.56
C       5.47       1.87       4.62
C      26.20       3.15       4.79
C      25.02       2.97       3.83
C      27.36       4.04       4.28
C      28.03       4.91       5.34
C       7.27       3.92       6.15
C       7.81       2.94       5.09
C       6.64       2.76       4.12
C       8.34       4.56       7.01
C      40.65      11.12      15.84
C      39.54      10.58      14.96
C      38.67       9.47      15.58
C      37.97       8.83      14.39
C      17.23       9.15      13.13
C      18.42       9.96      13.64
C      16.06       9.98      12.52
C      15.37       9.34      11.32
C      14.52       8.21      11.94
C      35.62       8.82      13.25
C      36.80       9.65      13.77
C      13.45       7.62      11.05
C      19.36       1.24       2.33
C      18.35       1.84       3.28
C      16.97       1.15       3.29
C      16.04       2.18       3.93
C      16.71       3.58       3.73
C      18.02       3.32       2.99
C      16.83       3.74       5.27
C      15.88       4.76       5.90
C      14.51       4.05       5.90
C      14.86       2.58       6.22
C      16.17       2.33       5.47
C      13.47       4.66       6.82
C      10.80      -3.41      15.77
C      32.33      -2.17      14.90
C      11.11      -2.36      13.43
C      11.34      -0.93      12.92
C      11.67      -0.06      14.19
C      33.24      -1.02      15.38
C      32.01       0.78      13.94
C      32.25       2.20      13.43
C      11.04       2.00      11.97
C      10.12       0.86      11.48
C      31.68      -0.09      12.67
C      11.00       3.23      11.09
O      10.90      18.64       0.07
O      31.42      16.16       1.85
O      12.07      16.22       1.90
O      12.05       8.53       7.12
O      31.40       8.55       7.15
O      23.12      11.43      15.16
O      24.32      10.82      17.01
O      30.95       7.16      11.64
O      29.82       7.78       9.76
O      23.51       2.11       1.54
O       2.92       0.10       1.70
O       9.30       3.81       7.38
O      29.81       5.79       7.29
O      19.96      11.74      15.23
O      40.55      10.94      17.09
O      34.11       7.04      11.64
O      13.62       7.73       9.79
O      20.38       1.96       2.05
O      19.11       0.07       1.88
O      12.45       3.93       7.07
O      13.68       5.84       7.25
O      32.26      -3.23      17.02
O      11.02      -4.53      15.19
O      11.19       3.04       9.84
O      32.40       4.36      11.66
O      10.92       6.13       8.96
