166

Zn       6.45       5.52      13.99
Zn       6.44       8.32      13.99
Zn       6.41       8.32       1.24
Zn       6.40       5.52       1.23
H       4.99       3.46      15.45
H       7.89       3.45      12.55
H       7.90      10.39      12.55
H       4.99      10.40      15.45
H       6.45       9.04       9.43
H       6.43       4.80       5.79
H       6.47       9.04      18.20
H       6.45       4.81      18.20
H       6.48       4.80      25.05
H       6.50       9.04      25.05
H       1.89       4.81      13.99
H      11.00       9.04      14.02
H       5.07      10.40      27.81
H       7.87      10.39       2.66
H       7.86       3.45       2.66
H       5.05       3.46      27.81
H       1.85       9.05       1.26
H      10.97       4.82       1.23
H       2.73      12.70      16.51
H       3.84      11.34      16.64
H       3.98      12.70      17.76
H       3.97       1.16      17.76
H       3.83       2.52      16.64
H       2.71       1.16      16.52
H      10.20      12.68      11.52
H       9.08      11.32      11.39
H       8.96      12.69      10.27
H       8.93       1.15      10.27
H       9.07       2.51      11.39
H      10.18       1.14      11.51
H       5.61      11.34      22.78
H       6.51      10.63      24.13
H       7.38      11.34      22.76
H       7.37      11.33      20.48
H       6.48      10.63      19.12
H       5.60      11.35      20.49
H       7.34       2.50      22.76
H       6.46       3.21      24.13
H       5.57       2.51      22.77
H       5.56       2.51      20.48
H       6.45       3.22      19.12
H       7.32       2.50      20.48
H       2.77       1.17      26.76
H       3.89       2.53      26.62
H       4.01       1.16      25.51
H       4.04      12.70      25.51
H       3.90      11.34      26.63
H       2.79      12.71      26.75
H      10.16       1.14       3.68
H       9.05       2.51       3.82
H       8.93       1.14       4.93
H       8.94      12.68       4.93
H       9.07      11.32       3.81
H      10.18      12.68       3.68
C       6.44       6.93      16.61
C       3.82       6.92      14.01
C       6.47       6.93      11.37
C       9.07       6.93      13.97
C       6.49       6.92      26.64
C       3.78       6.94       1.24
C       6.44       6.91       3.85
C       9.03       6.93       1.25
C       5.62       2.82      14.83
C       5.57       1.42      14.89
C       4.68       0.70      15.78
C       7.27       2.82      13.18
C       7.32       1.41      13.13
C       8.20       0.69      12.25
C       7.28      11.03      13.18
C       7.34      12.43      13.13
C       8.23      13.14      12.25
C       5.63      11.03      14.83
C       5.58      12.43      14.89
C       4.71      13.16      15.78
C       6.44       0.71      14.01
C       6.47      13.14      14.01
C       6.46       8.02       9.05
C       6.45       5.82       6.17
C       6.47       6.92       9.90
C       6.45       6.91       5.33
C       6.46       6.22       7.53
C       6.46       7.62       7.70
C       6.46       8.13      18.80
C       6.46       8.17      20.20
C       6.48       9.42      20.94
C       6.44       5.72      18.80
C       6.45       5.68      20.20
C       6.45       4.43      20.93
C       6.48       5.71      24.45
C       6.47       5.68      23.05
C       6.46       4.43      22.31
C       6.49       8.13      24.45
C       6.48       8.17      23.05
C       6.48       9.42      22.32
C       6.44       6.93      18.11
C       6.46       6.92      20.92
C       6.48       6.92      25.15
C       6.47       6.92      22.33
C       1.51       5.82      14.01
C      11.39       8.02      14.01
C       2.35       6.92      14.02
C      10.54       6.92      13.99
C      12.74       7.62      14.02
C       0.15       6.22      14.01
C       5.59      11.03       0.40
C       5.55      12.43       0.34
C       4.77      13.16      27.48
C       7.25      11.02       2.04
C       7.31      12.42       2.08
C       8.20      13.14       2.96
C       7.23       2.82       2.04
C       7.29       1.41       2.08
C       8.18       0.69       2.96
C       5.57       2.82       0.40
C       5.52       1.42       0.34
C       4.75       0.71      27.48
C       6.43      13.13       1.21
C       6.41       0.71       1.21
C       1.47       8.04       1.25
C      11.35       5.84       1.24
C       2.31       6.94       1.24
C      10.50       6.93       1.25
C      12.70       6.24       1.24
C       0.11       7.64       1.25
C       3.78      12.43      16.71
C       3.76       1.44      16.71
C       9.16      12.41      11.32
C       9.14       1.42      11.32
C       6.50      10.74      23.04
C       6.48      10.74      20.21
C       6.46       3.11      23.04
C       6.44       3.11      20.21
C       3.82       1.44      26.55
C       3.84      12.43      26.55
C       9.12       1.42       3.88
C       9.14      12.41       3.88
S       6.46       5.40       9.05
S       6.45       8.43       6.18
S       1.50       8.44      14.03
S      11.39       5.41      13.99
S       1.46       5.42       1.23
S      11.35       8.45       1.26
N       6.44       3.48      14.00
N       6.45      10.37      14.00
N       6.41      10.37       1.22
N       6.40       3.48       1.22
O       6.43       5.79      16.02
O       6.44       8.06      16.03
O       4.39       8.06      14.00
O       4.40       5.78      14.00
O       6.47       8.06      11.95
O       6.46       5.78      11.94
O       8.50       5.79      13.97
O       8.50       8.07      13.97
O       6.49       8.05      27.23
O       6.49       5.79      27.23
O       4.35       5.80       1.24
O       4.36       8.08       1.24
O       6.43       5.77       3.28
O       6.43       8.05       3.28
O       8.46       8.07       1.25
O       8.46       5.79       1.25
