59

Al      -0.00      -3.37       5.83
H       3.18       1.06       1.16
H       0.95       2.90       4.33
H       0.95       1.53       0.34
H       3.18       5.20       0.34
H       0.95       5.67       1.16
H       3.18       3.84       4.33
H       1.22       1.62       6.62
H       0.97      -0.13       6.53
H       3.86       0.96       5.91
H       2.91      11.92       1.12
H       3.15      11.12       2.69
H       0.27      12.20       2.04
H       1.22       6.93       9.76
H       0.97       7.89       8.29
H       3.86       7.87       9.55
H       2.91      -0.19       9.76
H       3.15      -1.15       8.29
H       0.27      -1.13       9.55
H       1.22       8.29       1.12
H       0.97       9.09       2.69
H       3.86       8.01       2.04
H       2.91       5.11       6.62
H       3.15       6.87       6.53
H       0.27       5.77       5.91
C       2.06      -3.37       7.88
C       2.06       8.33       4.81
C       2.06      -1.59       4.81
C       2.67      -0.22       2.79
C       2.69       1.00       2.13
C       2.06       2.14       2.65
C       1.44       2.03       3.91
C       1.46       0.84       4.63
C       2.06      -0.30       4.06
C       1.44      -4.40      11.47
C       1.46      -4.43      10.08
C       2.06      -3.37       9.38
C       2.67      -2.31      10.08
C       2.68      -2.34      11.47
C       2.06       3.37       0.53
C       1.44       5.74       2.13
C       1.46       6.96       2.79
C       2.06       7.03       4.06
C       2.67       5.90       4.63
C       2.69       4.71       3.91
C       2.06       4.60       2.65
C       0.82       0.81       6.00
C       3.31      12.05       2.13
C       0.82       7.87       9.37
C       3.31      -1.14       9.37
C       0.82       8.16       2.13
C       3.31       5.92       6.00
N       2.06       3.37       1.94
O       1.09      -2.39       4.60
O       1.09      -2.79       7.30
O       1.09       8.55       5.61
O       3.03      -1.81       5.61
O       3.03       9.13       4.60
O       3.03      -3.95       7.30
