144

Zn       4.72       6.25       8.41
Zn       2.11       2.44       9.07
Zn       2.09       5.46      10.34
Zn       4.49       3.37       6.95
H       0.40       4.74      13.25
H       7.62       3.21       5.60
H       0.43       0.85      11.36
H       7.76       7.12       7.45
H       7.05       2.37       8.42
H       3.47       4.77      12.98
H       2.76       7.99       6.54
H       0.03       2.92       6.59
H       3.70       1.52       4.39
H       2.62       4.24       4.36
H      -0.24       6.80       8.51
H      12.30       3.65       4.55
H       9.85       3.60       4.77
H      10.03       7.11       7.27
H      12.47       7.15       7.05
H      -4.37       7.45       5.77
H      14.11       3.15       5.95
H       7.39      -2.89      12.01
H       6.24      -0.71      11.98
H       7.73       0.02       8.01
H       8.95      -2.13       8.08
H      10.81      -3.45       9.81
H       3.93      12.04       9.66
H      -0.08      10.46       9.86
H      -0.00       3.46      15.39
H      -0.87       2.23      17.36
H      -1.25       0.21      12.84
H       2.40       5.52       2.38
H      -5.79      16.63       0.94
H       8.35       8.09      15.25
H       7.53       7.39      13.02
H       5.48       5.51      17.15
H      16.88      -0.46       2.60
H       4.73       4.71      14.92
H       0.96       8.57      10.96
H      -2.30       3.04       6.59
H       1.21      10.33       2.73
H       1.47       8.97       4.80
H       2.06       6.88       0.33
H      -2.05      -1.04      14.84
H       3.05      -0.44       3.09
H      -0.86       0.35       4.72
C       5.97       5.83      11.17
C       4.60       1.07      10.15
C       0.52       3.88      12.61
C       7.44       4.15       6.11
C       0.51       1.90      11.64
C       7.51       6.14       7.06
C       6.15       2.04       8.93
C       4.22       5.08      12.26
C       5.50       5.62      12.49
C       5.96       0.94       9.78
C       0.10       2.55      12.81
C       8.31       5.23       6.35
C       2.82       6.96       6.18
C       0.14       3.82       7.20
C       1.85       8.58      10.34
C       3.04       1.30       5.23
C       1.44       0.67       6.58
C       3.58       9.10       9.10
C       2.77       5.06       5.06
C       0.01       5.80       8.17
C       2.43       6.42       4.94
C      -0.64       4.99       7.21
C       2.47       9.69       9.73
C       1.82       0.59       5.23
C      11.81       4.41       5.15
C      10.42       4.38       5.28
C       9.74       5.33       6.06
C      10.51       6.35       6.65
C      11.90       6.38       6.52
C      12.58       5.39       5.80
C      -3.93       6.47       5.96
C      -2.58       6.39       6.29
C      -1.95       5.16       6.58
C      -2.74       4.01       6.37
C      -4.08       4.07       6.02
C      -4.72       5.32       5.87
C       7.48      -2.25      11.13
C       6.82      -1.02      11.12
C       6.85      -0.20       9.97
C       7.69      -0.60       8.91
C       8.37      -1.81       8.94
C       8.22      -2.68      10.03
C      10.13      -4.31       9.82
C       2.85      12.18       9.74
C       1.99      11.07       9.77
C       0.61      11.30       9.88
C       0.11      12.59       9.98
C       8.76      -4.06       9.96
C       2.00       7.15       3.75
C       2.10       6.57       2.47
C       1.92       7.32       1.32
C       1.64       8.69       1.41
C       1.45       9.27       2.68
C       1.61       8.50       3.83
C      -0.96       1.81      16.36
C      -0.49       2.49      15.25
C      -1.51       0.52      16.22
C      -0.54       1.92      13.96
C      -1.16       0.66      13.83
C      -1.62      -0.04      14.94
C       6.06       6.00      13.79
C       5.50       5.47      14.98
C       5.92       5.91      16.23
C       6.95       6.87      16.33
C       7.54       7.36      15.16
C       7.09       6.95      13.91
C       1.39      -0.82       1.78
C       1.97      -0.41       2.97
C      -0.00      -0.82       1.64
C       1.17       0.04       4.05
C      -0.23       0.00       3.90
C      -0.81      -0.44       2.72
Br       7.64       6.46      10.57
Br      -0.06      -0.04       7.46
Br       4.91       9.85       7.99
Br       3.53      -0.09      11.17
Br      -1.60       8.04       6.33
Br       6.01      -5.00      10.05
N       5.05       5.47      10.26
N       4.03       2.14       9.55
N       1.14       3.99      11.42
N       6.23       4.40       6.65
N       1.14       2.76      10.82
N       6.28       5.64       7.24
N       5.00       2.74       8.79
N       3.96       5.01      10.94
N       3.36       6.00       6.95
N       1.14       3.92       8.09
N       2.53       7.45      10.10
N       3.34       1.75       6.46
N       2.34       1.35       7.32
N       3.62       7.77       9.32
N       3.32       4.83       6.26
N       1.05       5.14       8.69
N       1.69       9.58       0.32
N      -1.83      -0.33      17.29
N       7.48       7.35      17.53
N      10.33      16.57       0.44
