102

Zn       6.30       6.32       8.66
Zn       5.82       9.17       8.43
H       5.06       6.04      15.28
H       8.40       1.81      10.35
H      11.56       5.62       7.32
H      13.10       4.75       7.56
H      11.60       4.16       8.33
H      13.01       5.34      10.03
H      11.50       6.24       9.74
H       0.41       8.82       6.36
H      12.66       9.71       6.23
H       0.40      10.60       6.46
H      -0.83      10.50       8.63
H       7.05       9.44       1.81
H       0.67       9.55       8.73
H       5.04       6.04      12.76
H       7.07       9.44       4.33
H       5.96       3.46       3.01
H       4.27       4.00       3.09
H       4.80       2.98       1.74
H       4.60       5.33       0.96
H       6.25       4.79       0.85
H       7.84      11.48      14.00
H       6.14      12.02      14.09
H       5.66       5.39       4.33
H       7.29      12.50      15.35
H       5.86      10.68      16.24
H       7.52      10.15      16.13
H       4.18      12.18       4.68
H       5.30      10.81       4.93
H       3.66      10.52       4.33
H       3.79       9.92       6.76
H       2.70      11.29       6.52
H       6.82       4.67      12.17
H       7.94       3.30      12.43
H       6.46      10.08      12.76
H       8.46       4.97      12.78
H       9.42       4.21      10.58
H       8.33       5.58      10.35
H       5.28       4.10       7.34
H       6.83      11.39       9.77
H       5.42       1.58       7.25
H       6.69      13.91       9.86
H       3.71      13.68       6.76
C       6.26       7.46       5.96
C       6.03       2.16       7.94
C       5.18      13.97       8.29
C       6.93       1.53       8.82
C       4.41      13.19       7.43
C       7.70       2.30       9.68
C       4.55      11.80       7.42
C       7.57       3.70       9.68
C       3.51       7.16       8.54
C       8.60       8.37       8.65
C      10.04       8.51       8.68
C       5.87       8.01      11.13
C       2.08       7.02       8.67
C      12.67       8.38       8.66
C      -0.53       7.16       8.93
C       0.87       7.05       8.81
C      11.26       8.48       8.68
C       6.33       7.42       4.47
C       5.79       8.05      12.63
C       6.74       8.57       3.77
C       5.37       6.91      13.32
C       6.73       8.57       2.38
C       5.91       6.25       2.36
C       5.38       6.91      14.71
C       6.28       7.43       1.68
C       5.82       8.04      15.41
C      12.45       5.93       9.28
C      12.16       5.06       8.05
C      -0.32       9.60       8.26
C      -0.15       9.69       6.74
C       5.46       5.04       1.58
C       5.10       3.81       2.41
C       6.65      10.44      15.51
C       6.20       9.23      14.73
C       7.00      11.67      14.69
C       3.75      10.97       6.46
C       4.25      11.14       5.01
C       8.37       4.52      10.65
C       7.86       4.35      12.09
C       5.95       6.27       3.76
C       6.17       9.20      13.33
C       6.16      11.95       9.12
C       5.96       3.54       7.99
C       6.08      13.33       9.17
N       6.22       7.39       0.27
N       5.89       8.09      16.82
N       5.42      11.20       8.27
N       6.70       4.29       8.84
N       4.98      15.37       8.21
N       7.13       0.13       8.90
O       6.36       6.36       6.60
O       5.86       9.12      10.50
O       6.08       8.61       6.48
O       5.95       6.85      10.61
O       4.22       6.10       8.49
O       7.90       9.42       8.52
O       3.93       8.37       8.48
O       8.18       7.17       8.74
