136

Al       4.61       3.98      17.29
Al       1.38      14.90       5.75
Al       1.24       4.06      17.29
Al       4.73      14.87       5.78
H       4.36      19.18      12.81
H       1.39      17.88      11.73
H       2.05       8.11       0.37
H       4.41      10.48      22.93
H       2.01       0.01      12.34
H       4.88      -0.31      10.12
H       4.03       9.55      21.19
H       1.51       9.65       1.58
H       1.80      -0.07       1.66
H       4.43      -1.24      21.41
H       4.91      11.04      11.30
H       1.09       7.87      11.76
H       1.45       0.26      22.94
H       4.55      18.67       0.13
H       4.90       9.35      13.13
H       1.09       9.56       9.93
H       4.11      19.12      17.06
H       4.94       0.56      17.15
H       6.03      -0.76      16.58
H       1.89      14.16      10.21
H       0.43      14.48       9.23
H       0.41      14.80      11.00
H      -0.13       3.89      21.83
H      -0.19       5.16      20.56
H      -0.23       5.62      22.30
H       6.49      13.10       2.67
H      -0.06      14.53       1.60
H       6.56      12.89       0.89
H       2.22      -0.67      15.89
H       1.18       0.62      16.56
H       2.93       0.80      16.63
H       5.70      18.45       6.32
H       5.41      -0.16       6.86
H       4.01      18.97       6.08
H       5.98       6.87      19.11
H       6.11       8.46      19.96
H       6.03       8.40      18.17
H       2.60      11.30       5.26
H       2.19       9.62       4.76
H       0.97      10.64       5.60
H       2.89       2.66      16.36
H       3.06      16.38       6.58
H       6.24       5.63      16.71
H       6.43      13.24       5.17
C       2.95       5.71      15.54
C       3.04      13.15       7.47
C       6.32       2.40      19.08
C       6.40      16.58       4.04
C       2.94       5.52      19.15
C       3.06      13.40       3.87
C       6.32       2.23      15.62
C      -0.32      16.36       7.67
C       5.42      -0.41      13.07
C       0.65      18.04      10.94
C       2.17       7.03      22.56
C       4.06      11.70       0.62
C       5.42       0.20      14.33
C       0.64      17.16       9.86
C       2.21       6.14      21.49
C       4.01      12.61       1.67
C      -0.25       1.08      14.70
C      -0.32      17.29       8.83
C       2.94       6.45      20.32
C       3.08      12.45       2.72
C       0.99       0.82      14.06
C       5.43      18.32       8.96
C       3.62       7.68      20.26
C       2.20      11.35       2.65
C       1.04       0.17      12.83
C       5.42      19.16      10.06
C       3.55       8.58      21.32
C       2.24      10.46       1.58
C      -0.14      -0.38      12.29
C      -0.32      19.04      11.06
C       2.83       8.27      22.49
C       3.18      10.61       0.54
C       0.63      -0.45      23.00
C       5.38      19.38       0.06
C       4.07       9.40      12.43
C       1.92       9.51      10.64
C       6.30      -0.38      22.06
C       6.42      19.31       1.01
C       2.99       8.50      12.57
C       3.00      10.41      10.50
C       5.23      -1.30      22.14
C       1.00      -0.02       0.92
C       1.92       8.57      11.66
C       4.08      10.34      11.41
C       6.32       0.59      21.03
C       6.39      18.34       2.05
C       2.99       7.54      13.60
C       3.01      11.36       9.45
C       6.38      17.53       2.95
C       6.33       1.43      20.15
C       3.02      12.18       8.54
C       2.97       6.70      14.48
C       4.99      -0.39      16.59
C       1.03      14.83      10.09
C       0.18       4.91      21.57
C       6.20      13.54       1.70
C       2.11       0.41      16.04
C       4.87      19.03       6.75
C       5.68       7.93      19.10
C       1.80      10.64       4.88
O       1.80       5.24      18.66
O       4.19      13.71       4.37
O       5.15       2.62      15.95
O       0.81      16.04       7.17
O       4.09       5.31      15.95
O       1.91      13.52       7.03
O       0.73       2.82      18.68
O       5.26      16.21       4.48
O       4.06       5.11      18.73
O       1.93      13.82       4.28
O       0.68       2.84      15.96
O       5.28      15.95       7.24
O       5.17       2.73      18.63
O       0.83      16.23       4.46
O       1.79       5.36      15.95
O       4.20      13.51       7.08
O       2.92       3.22      17.16
O       3.06      15.69       5.90
O       6.27       4.85      17.28
O       6.42      14.07       5.68
O       4.52      -0.24      15.23
O       1.57      16.14       9.89
O       1.62       4.90      21.59
O       4.78      13.75       1.65
O       2.16       1.06      14.73
O       4.44      18.51       8.02
O       4.24       8.05      19.09
O       1.25      11.11       3.64
