96

Zn       3.24       0.19       8.56
Zn       6.60      13.51       8.47
Zn       6.13       6.79       0.03
Zn       3.44       6.86       0.03
H       6.74       9.64       2.74
H       1.66       8.97       4.25
H       1.47      10.43       3.24
H       1.90      11.88       5.23
H       2.06      10.44       6.26
H       6.68       3.81      14.46
H       1.87       5.06      12.50
H       1.42       3.63      13.47
H       1.89       2.12      11.57
H       2.30       3.52      10.53
H       7.06       3.95       3.46
H       1.81       3.61       2.40
H       1.83       5.06       3.44
H       1.49       3.59       5.47
H       1.52       2.15       4.44
H       3.18       9.45      14.02
H       8.39       8.96      12.83
H       8.43      10.39      13.89
H       8.08      11.88      11.92
H       8.07      10.47      10.84
H       7.70       9.55       5.79
H       7.47       1.56      10.92
H       7.17       0.75       4.80
H       2.63       9.83      10.39
C       4.84      11.96      10.39
C       5.31      11.96       6.57
C       4.40       1.79       6.67
C       5.20       1.66      10.48
C       5.11       5.12       1.91
C       4.45       8.61       1.84
C       5.43       8.52      15.10
C       4.47       5.11      15.17
C       4.61       9.54       3.00
C       5.09      11.17       5.34
C       3.57      10.00       3.81
C       6.14      10.76       4.49
C       3.81      10.79       4.94
C       5.91       9.96       3.37
C       2.07       9.97       4.03
C       2.34      10.88       5.29
C       4.60       4.17      14.03
C       5.13       2.48      11.73
C       3.60       3.84      13.12
C       6.17       2.78      12.68
C       3.87       3.01      12.03
C       5.87       3.60      13.77
C       2.15       4.03      12.76
C       2.44       3.08      11.53
C       4.95       4.21       3.08
C       4.59       2.59       5.44
C       3.69       3.86       3.56
C       5.89       2.90       4.94
C       3.51       3.07       4.70
C       6.05       3.70       3.80
C       2.20       4.03       3.34
C       2.00       3.12       4.62
C       5.32       9.40      13.90
C       4.95      11.06      11.56
C       6.40       9.87      13.16
C       3.84      10.58      12.32
C       6.21      10.69      12.03
C       4.04       9.79      13.45
C       7.91       9.92      13.04
C       7.69      10.86      11.79
C       7.56      11.17       4.76
C       7.63       2.33      12.70
C       7.17       2.53       5.65
C       2.41      10.90      11.98
O       3.71      12.47      10.06
O       5.94      12.17       9.78
O       6.52      12.21       6.93
O       4.26      12.33       7.19
O       5.47       1.39       7.23
O       3.21       1.53       7.08
O       4.09       1.46       9.90
O       6.31       1.18      10.02
O       6.29       5.47       1.52
O       4.01       5.51       1.40
O       3.27       8.26       1.48
O       5.54       8.22       1.32
O       4.32       8.22      15.65
O       6.58       8.11      15.48
O       5.57       5.44      15.73
O       3.31       5.54      15.53
O       8.29      10.27       5.49
O       8.09      12.17       4.31
O       8.17       1.75      11.63
O       8.32       2.54      13.70
O       7.74       1.33       5.36
O       7.76       3.31       6.37
O       1.91      10.30      10.85
O       1.69      11.56      12.69
