288

Tb      12.74      16.66      21.10
Tb      20.01      16.66      16.64
Tb      16.37       5.56       4.06
Tb       9.09       5.56       8.52
Tb      16.38      14.71      18.87
Tb      23.65      18.62      18.87
Tb      12.73       7.51       6.29
Tb       5.46       3.60       6.29
H      18.01      17.37      19.48
H      22.01      15.96      19.48
H      14.74      17.37      18.26
H      10.74      15.96      18.26
H      11.10       4.85       5.68
H       7.09       6.26       5.68
H      14.37       4.85       6.90
H      18.37       6.26       6.90
H      20.36      20.17      21.76
H      19.67      13.16      21.76
H      12.39      20.17      15.99
H      13.08      13.16      15.98
H       8.75       2.05       3.40
H       9.44       9.06       3.40
H      16.71       2.05       9.18
H      16.03       9.06       9.18
H      16.26      19.32      22.88
H      23.76      14.01      22.88
H      16.49      19.32      14.86
H       8.99      14.01      14.86
H      12.85       2.90       2.28
H       5.34       8.21       2.28
H      12.62       2.90      10.30
H      20.12       8.21      10.30
H      13.73      22.05       0.91
H      11.73      11.28       0.91
H      11.73      22.05      11.67
H      13.74      11.28      11.67
H      15.37       0.17      24.25
H      17.38      10.94      24.25
H      17.37       0.17      13.50
H      15.37      10.94      13.50
H       6.02       1.31       2.85
H      12.17       9.80       2.85
H       4.89       1.31       9.73
H      13.30       9.80       9.72
H      23.09      20.91      22.31
H      16.94      12.42      22.31
H      24.21      20.91      15.44
H      15.81      12.42      15.44
H       2.13       2.25       1.28
H      16.06       8.86       1.29
H       8.78       2.25      11.30
H       9.41       8.86      11.29
H      26.98      19.97      23.88
H      13.05      13.36      23.88
H      20.32      19.97      13.87
H      19.70      13.36      13.87
H       9.81       0.72      24.52
H      22.94      10.39      24.52
H       8.39       0.73      13.22
H       9.81      10.39      13.22
H      19.30      21.49       0.64
H       6.17      11.83       0.64
H      20.72      21.49      11.94
H      19.30      11.83      11.94
H      17.47      20.86      24.02
H      22.56      12.47      24.02
H      15.28      20.86      13.72
H      10.19      12.47      13.72
H      11.64       1.36       1.14
H       6.55       9.75       1.14
H      13.83       1.36      11.44
H      18.92       9.75      11.44
H      13.21      16.02      24.13
H      26.82      17.31      24.13
H      19.54      16.02      13.62
H      20.48      17.31      13.62
H      15.90       6.20       1.04
H       2.29       4.91       1.04
H       9.57       6.20      11.55
H       8.63       4.91      11.55
H      16.70      11.73      18.14
H      23.32      21.60      18.14
H      16.04      11.73      19.60
H      23.98      21.60      19.60
H      12.40      10.49       7.02
H       5.79       0.62       7.02
H      13.07      10.49       5.56
H       5.13       0.62       5.56
C      15.75      17.48      20.98
C      24.27      15.85      20.98
C      17.00      17.48      16.76
C      23.03      15.85      16.76
C      13.35       4.74       4.18
C       4.84       6.37       4.19
C      12.11       4.74       8.40
C       6.08       6.37       8.40
C      17.02      18.25      21.18
C      23.00      15.09      21.18
C      15.73      18.25      16.56
C       9.75      15.09      16.56
C      12.09       3.97       3.98
C       6.10       7.13       3.98
C      13.38       3.97       8.61
C      19.36       7.13       8.61
C      18.10      18.06      20.32
C      21.92      15.27      20.32
C      14.65      18.05      17.42
C      10.82      15.28      17.42
C      11.01       4.16       4.84
C       7.18       6.94       4.84
C      14.46       4.16       7.74
C      18.28       6.94       7.74
C      19.29      18.76      20.52
C      20.74      14.57      20.52
C      13.46      18.76      17.22
C      12.01      14.57      17.22
C       9.82       3.46       4.64
C       8.37       7.65       4.64
C      15.65       3.46       7.94
C      17.09       7.65       7.94
C      19.42      19.65      21.59
C      20.60      13.68      21.59
C      13.33      19.65      16.15
C      12.15      13.68      16.15
C       9.69       2.57       3.57
C       8.50       8.54       3.57
C      15.78       2.57       9.01
C      16.96       8.54       9.01
C      18.32      19.87      22.44
C      21.70      13.46      22.44
C      14.43      19.87      15.30
C      11.05      13.46      15.30
C      10.78       2.35       2.72
C       7.41       8.76       2.72
C      14.68       2.35       9.86
C      18.06       8.76       9.86
C      17.13      19.16      22.23
C      22.90      14.17      22.23
C      15.62      19.17      15.51
C       9.85      14.17      15.51
C      11.98       3.06       2.93
C       6.21       8.05       2.93
C      13.48       3.05       9.65
C      19.26       8.05       9.65
C      20.42      18.53      19.56
C      19.61      14.80      19.56
C      12.33      18.53      18.18
C      13.14      14.80      18.18
C       8.69       3.69       5.60
C       9.50       7.42       5.60
C      16.78       3.69       6.98
C      15.96       7.42       6.98
C      19.41      21.48      24.03
C      20.62      11.85      24.03
C      13.34      21.48      13.71
C      12.13      11.85      13.71
C       9.70       0.74       1.13
C       8.49      10.37       1.13
C      15.77       0.74      11.45
C      16.98      10.37      11.45
C       4.51       0.14       0.03
C      13.68      10.97       0.03
C       6.40       0.14      12.55
C      11.79      10.97      12.55
C      24.60      22.08      25.13
C      15.43      11.25      25.13
C      22.70      22.08      12.61
C      17.32      11.25      12.61
C       5.49       0.32       1.01
C      12.70      10.79       1.01
C       5.42       0.32      11.57
C      12.77      10.78      11.57
C      23.61      21.90      24.15
C      16.41      11.43      24.15
C      23.69      21.90      13.59
C      16.34      11.44      13.59
C       5.25       1.16       2.10
C      12.94       9.95       2.10
C       5.66       1.16      10.48
C      12.53       9.95      10.48
C      23.86      21.06      23.07
C      16.17      12.27      23.07
C      23.44      21.06      14.68
C      16.58      12.27      14.68
C       4.04       1.86       2.19
C      14.15       9.25       2.20
C       6.87       1.86      10.39
C      11.32       9.25      10.38
C      25.07      20.36      22.97
C      14.96      12.97      22.97
C      22.23      20.36      14.78
C      17.79      12.97      14.78
C       3.06       1.69       1.20
C      15.12       9.42       1.20
C       7.85       1.69      11.38
C      10.34       9.42      11.38
C      26.04      20.53      23.96
C      13.98      12.80      23.96
C      21.26      20.53      13.78
C      18.77      12.80      13.79
C       3.29       0.82       0.14
C      14.90      10.29       0.14
C       7.63       0.83      12.44
C      10.57      10.29      12.44
C      25.82      21.39      25.03
C      14.21      11.93      25.02
C      21.48      21.39      12.72
C      18.54      11.93      12.72
C       3.82       2.82       3.33
C      14.37       8.29       3.33
C       7.10       2.82       9.25
C      11.09       8.29       9.25
C      25.29      19.40      21.83
C      14.74      13.93      21.83
C      22.01      19.40      15.91
C      18.01      13.93      15.91
N      18.34      20.78      23.51
N      21.68      12.55      23.51
N      14.41      20.78      14.23
N      11.07      12.55      14.23
N      10.76       1.44       1.65
N       7.42       9.67       1.65
N      14.70       1.44      10.93
N      18.04       9.67      10.93
O      14.71      17.84      21.62
O      25.31      15.49      21.61
O      18.04      17.84      16.13
O      21.99      15.49      16.13
O      14.39       4.38       3.55
O       3.80       6.73       3.55
O      11.07       4.38       9.03
O       7.12       6.73       9.03
O      15.75      16.51      20.15
O      24.27      16.83      20.15
O      17.00      16.50      17.59
O      23.03      16.82      17.59
O      13.35       5.71       5.01
O       4.84       5.39       5.01
O      12.11       5.72       7.58
O       6.08       5.39       7.58
O      20.13      18.04      18.43
O      19.90      15.29      18.43
O      12.63      18.04      19.31
O      12.85      15.29      19.32
O       8.98       4.18       6.73
O       9.21       6.93       6.74
O      16.48       4.18       5.85
O      16.26       6.93       5.85
O      21.61      18.82      19.93
O      18.42      14.51      19.93
O      25.70      18.82      17.81
O      14.33      14.51      17.81
O       7.50       3.40       5.23
O      10.69       7.71       5.23
O       3.41       3.40       7.35
O      14.78       7.71       7.35
O      20.56      21.39      23.60
O      19.46      11.94      23.60
O      12.19      21.39      14.15
O      13.29      11.94      14.14
O       8.55       0.83       1.57
O       9.64      10.28       1.57
O      16.92       0.83      11.01
O      15.82      10.28      11.02
O       4.50       2.64       4.38
O      13.69       8.47       4.38
O       6.41       2.64       8.20
O      11.78       8.47       8.20
O      24.60      19.58      20.78
O      15.42      13.75      20.78
O      22.70      19.58      16.96
O      17.33      13.75      16.97
O       2.96       3.74       3.14
O      15.22       7.37       3.14
O       7.95       3.74       9.44
O      10.24       7.37       9.44
O      26.14      18.48      22.02
O      13.88      14.85      22.03
O      21.16      18.48      15.72
O      18.87      14.85      15.72
O      12.73      16.66      23.58
O      20.02      16.66      14.16
O      16.38       5.56       1.58
O       9.09       5.56      11.00
O      16.38      12.27      18.88
O      23.65      21.06      18.87
O      12.73       9.95       6.29
O       5.46       1.16       6.29
