184

Zn      10.54       4.29       3.12
Zn      25.30      16.69      11.93
Zn       8.94       7.09       3.07
Zn      26.89      13.89      11.98
Zn       8.96       5.27       5.74
Zn      26.87      15.72       9.30
Zn       7.38       4.31       3.13
Zn      28.46      16.68      11.92
H      13.16      11.95      12.87
H      31.98      18.71       9.90
H      16.17      13.98       2.28
H      15.75      13.28       0.69
H      17.27      12.82       1.48
H      19.67       7.01      12.77
H      18.57       8.16      13.57
H      20.09       7.70      14.36
H      29.81      10.29      15.02
H       6.03      10.70       0.03
H      11.84      11.67       6.27
H      22.68       9.04       2.18
H      10.95      13.12       6.81
H      11.85      12.15       7.99
H      23.99       9.31       8.77
H      23.99       8.84       7.06
H      24.89       7.87       8.24
H      26.99      12.55       4.80
H       9.82      11.09       4.27
H       8.05      11.10       4.25
H       8.85       8.44      10.25
H      27.79       9.89      10.80
H      20.29       7.92       1.09
H      26.02       9.90      10.78
H      24.01      11.66       6.21
H      23.98      12.15       7.92
H      24.91      13.10       6.74
H      11.83       9.33       8.84
H      10.93       7.88       8.31
H      11.85       8.83       7.13
H      22.11      11.01      12.59
H      13.72       9.97       2.46
H      19.92      13.53      13.03
H      15.54      13.07      13.96
H      15.92       7.45       2.02
H      20.79      15.86      15.05
H      15.05       5.12       0.00
H      16.21       6.71      12.55
H      17.31       5.58      11.72
H      15.79       4.99      12.40
H      19.63      14.27       2.50
H      20.05      16.00       2.64
H      18.53      15.40       3.33
H      21.93      15.30       6.16
H       6.69       0.62       0.43
H      23.65      15.37       6.64
H      22.40      15.01       7.86
H      13.91       5.68       8.88
H      13.43       5.98       7.19
H      12.19       5.62       8.41
H      15.93       4.24       6.29
H      19.90      16.75       8.76
H      20.04       4.55       6.24
H      19.21       3.04       6.71
H      19.57       4.27       7.94
H      29.15      20.36      14.61
H      15.80      16.43       8.81
H      16.27      16.71       7.11
H      16.63      17.94       8.34
H      13.53      15.48       6.22
H      22.30       5.50       8.83
H      14.09       2.27       5.16
H      21.74      18.72       9.89
H       3.85       2.27       5.15
C       6.40       6.67       1.64
C      12.54       3.12       6.70
C      14.66       3.18       7.29
C      21.18      17.81       7.76
C       4.11       2.40       6.21
C      31.73      18.59       8.84
C      21.28       3.15       7.27
C      14.55      17.83       7.78
C      30.45      17.84       8.34
C       5.38       3.14       6.71
C      13.25      17.09       7.25
C      29.43      14.31      13.41
C      22.58       3.89       7.80
C       4.04       6.63       0.20
C      31.80      14.35      14.85
C      11.49       3.73       5.85
C      24.35      17.25       9.20
C      13.25      12.44      13.85
C      22.58       8.55       1.20
C      30.49      13.72      14.27
C       5.35       7.26       0.78
C      21.28       7.91       0.62
C      17.30       5.42      13.87
C      14.56      13.07      14.43
C       8.91      10.93       6.22
C      26.93      10.05       8.83
C      10.00      11.25       7.31
C      25.83       9.74       7.74
C      26.93      11.55       8.38
C       8.91       9.43       6.67
C      25.83      11.24       7.28
C      10.00       9.74       7.77
C      21.16      13.08      14.42
C      18.54      15.57       1.18
C      14.68       7.90       0.62
C      22.47      12.41      13.86
C      13.36       8.57       1.19
C      23.29      13.71      14.26
C      12.55       7.28       0.78
C      11.50       6.69       1.66
C      24.34      14.30      13.39
C      21.98      14.37      14.83
C      13.86       6.61       0.22
C       6.43       3.76       5.86
C      13.83       2.40       6.21
C      29.41      17.22       9.19
C       8.92       8.22       5.82
C      26.91      12.76       9.23
C       8.95       2.29       1.66
C      26.88      18.69      13.39
C       7.72       0.34       0.24
C      28.11      20.65      14.81
C      17.27      14.80       0.63
C      18.57       6.18      14.42
C      26.88      19.88      14.26
C      22.01      18.58       8.84
C       8.96       1.10       0.79
C      16.58      13.66       1.30
C      19.26       7.33      13.74
C      11.22      12.09       7.08
C      24.61       8.89       7.96
C       8.93      11.45       4.81
C      26.91       9.54      10.24
C      24.62      12.08       7.02
C      11.22       8.90       8.03
C      16.62       5.69      12.56
C      22.48      17.07       7.24
C      19.22      15.30       2.48
C      22.62      15.61       6.96
C      13.21       5.37       8.09
C      19.95       3.79       7.03
C      15.88      17.20       8.02
C      13.35       3.91       7.81
C      23.30      17.87       8.35
O       8.97       5.26       3.78
O      25.28      16.63       8.59
O       6.26       5.46       2.00
O      29.57      15.53      13.05
O      11.63       3.60       4.59
O      24.21      17.39      10.46
O      10.52       7.46       1.94
O      25.31      13.52      13.11
O       7.40       4.32       6.47
O      28.44      16.66       8.58
O       8.89       8.38       4.55
O      26.87      15.72      11.27
O      26.95      12.61      10.50
O       7.82       2.74       2.04
O      28.01      18.24      13.01
O       8.97       7.10       6.45
O      26.86      13.88       8.60
O      10.10       2.78       1.96
O      25.73      18.21      13.09
O       3.69       5.31       0.43
O      32.14      15.67      14.62
O      22.64      11.83      12.61
O      11.67       5.49       2.05
O      13.20       9.15       2.44
O      19.89      13.03      13.86
O      15.94       7.96       1.19
O      21.63      15.69      14.58
O      14.21       5.29       0.47
O      15.92       3.75       7.13
O      19.92      17.23       7.91
O      13.11      15.72       7.06
O      22.72       5.26       7.99
O      24.16      15.49      13.00
O       6.27       3.66       4.60
O      29.57      17.32      10.45
O       7.36       7.46       1.95
O      28.47      13.52      13.10
O      10.55       4.35       6.46
