178

Zn       9.70      18.60      18.68
Zn      17.71      10.91       1.02
Zn      17.78       7.74       1.02
Zn      24.26      18.53      18.56
Zn       7.27      18.68       1.00
Zn      16.97      10.81      18.58
Zn      16.89      26.30      18.60
Zn      10.51      18.61       1.01
H      11.02      18.58       5.22
H      10.90      18.54       7.72
H       6.72      18.61       5.03
H      10.39      18.56      14.63
H       6.10      18.55      14.38
H       6.24      18.54      11.89
H      17.14       7.07      14.49
H      17.40       7.08      12.00
H      17.09      11.37      14.50
H      17.58       7.19       5.14
H      17.59      11.49       5.12
H      17.59      11.50       7.62
H      10.87      14.05      18.09
H      10.21      13.41      19.60
H      11.77      11.68      19.54
H      12.43      12.33      18.03
H       4.60       3.20       1.90
H       5.91       4.37       1.99
H       3.05       4.96       1.96
H       4.38       6.12       2.02
H      12.75      15.74      18.15
H      13.40      16.30      19.69
H      14.96      14.56      19.66
H      14.33      14.02      18.12
H      23.16      23.29      17.96
H      23.76      23.79      19.55
H      22.19      25.53      19.57
H      21.60      25.00      17.99
H      13.13      15.34       1.82
H      11.82      14.16       1.75
H      14.68      13.58       1.80
H      13.36      12.42       1.70
H      21.29      21.58      17.81
H      20.59      20.90      19.27
H      19.02      22.64      19.31
H      19.72      23.30      17.85
H      10.46      23.44      18.61
H      11.63      22.39      17.80
H      13.16      24.15      17.75
H      11.99      25.19      18.58
H      14.77      22.74      19.08
H       6.69      13.55       1.00
H      13.22      20.98      19.14
H       5.14      11.82       1.06
H       2.35      14.31       1.30
H       3.46      13.33       2.24
H       5.03      15.06       2.20
H       3.90      16.05       1.27
H      23.51      13.57      18.44
H      22.36      14.57      17.54
H      20.83      12.80      17.57
H      21.98      11.82      18.49
H      19.19      14.29      18.75
H      11.07       5.11       0.66
H      20.74      16.05      18.75
H      12.63       6.84       0.67
H      15.40       4.36       1.13
H      14.28       5.40       1.99
H      12.69       3.68       2.01
H      13.83       2.63       1.19
H       6.30      18.71       8.66
H       5.50      18.78       7.14
H      10.84      18.71      11.00
H      11.63      18.77      12.52
H      17.31      11.62      10.85
H      17.10      12.50      12.31
H      17.38       6.97       8.79
H      17.32       6.08       7.32
C       2.55      11.87       0.07
C      17.58       9.32       3.51
C       2.58       6.80       0.02
C      23.32      15.97      19.65
C       8.17      18.57      16.13
C      23.31      21.14      19.63
C      14.46      11.86      19.78
C      16.94       9.23      16.11
C      14.40      25.31      19.82
C      19.48      25.31      19.69
C       8.91      18.64       3.50
C      19.52      11.77      19.68
C       8.87      18.60       4.99
C      10.06      18.58       5.74
C       9.99      18.56       7.13
C       8.75      18.55       7.80
C       7.54      18.57       7.04
C       7.63      18.60       5.64
C       8.66      18.55       9.21
C       8.49      18.54      10.43
C       8.39      18.54      11.83
C       9.59      18.54      12.61
C       9.49      18.56      14.01
C       8.24      18.56      14.64
C       7.06      18.55      13.88
C       7.14      18.54      12.49
C      17.09       9.22      14.62
C      17.19       8.00      13.93
C      17.33       8.01      12.56
C      17.39       9.22      11.83
C      17.31      10.46      12.54
C      17.15      10.44      13.93
C      17.49       9.24      10.43
C      17.54       9.35       9.21
C      17.58       9.35       7.80
C      17.57       8.11       7.10
C      17.57       8.12       5.70
C      17.58       9.33       5.00
C      17.58      10.56       5.68
C      17.59      10.56       7.07
C      11.14      13.73      19.11
C      12.18      12.58      19.07
C      13.46      13.01      19.82
C       5.00       4.10       1.43
C       3.98       5.26       1.46
C       3.64       5.71       0.02
C      13.00      15.41      19.17
C      14.04      14.27      19.14
C      22.85      23.51      18.99
C      21.81      24.66      19.01
C      20.50      24.17      19.66
C      12.75      14.48       1.26
C      13.78      13.32       1.23
C      22.25      22.23      19.63
C      21.00      21.83      18.84
C      19.96      22.97      18.86
C      11.49      23.06      18.66
C      12.51      24.22      18.63
C       5.31      14.94       0.06
C       6.04      13.58       0.11
C       5.01      12.42       0.14
C       3.58      12.99       0.11
C       3.37      13.92       1.32
C       4.40      15.07       1.29
C      22.48      13.95      18.44
C      21.46      12.79      18.47
C      20.54      12.90      19.71
C      19.82      14.27      19.65
C      20.85      15.43      19.65
C      22.28      14.86      19.69
C      14.38       4.75       1.10
C      13.34       3.61       1.13
N       6.32      18.51       7.67
N      10.82      18.49      11.99
N      17.42      11.65      11.86
N      17.61       6.93       7.80
O       8.04      18.56      19.72
O      10.81      20.18      19.06
O      17.54      10.45       2.92
O       1.59       6.63       0.81
O       1.57      11.95       0.88
O      10.81      17.03      19.07
O      17.64       8.17       2.93
O      16.26       6.59       0.56
O       7.01      18.57      16.66
O      23.12      16.95      18.85
O       9.29      18.59      16.76
O      16.26      12.11       0.52
O      23.12      20.11      18.91
O      16.95       9.24      19.75
O       6.10       1.58       0.63
O      16.83      10.37      16.68
O      15.31      25.19      18.94
O      15.49      12.01      19.05
O       6.19      17.06       0.77
O      16.94       8.09      16.69
O      18.46      25.18      18.95
O      10.05      18.57       2.93
O      11.67      17.06       0.60
O       7.78      18.73       2.90
O      18.62      11.85      18.77
O      11.56       1.61       0.70
