88

Zn       5.89       8.33       7.65
Zn       5.62       5.55       7.64
H       1.26       5.41       7.62
H       4.41      10.79       6.94
H       3.31       3.84       8.36
H       8.23      10.04       8.32
H       2.74       1.39       8.40
H       8.79      12.49       8.37
H       3.41      11.00      14.10
H       2.62      11.44       0.35
H       4.23      12.29      15.00
H       4.68      10.55       1.55
H       5.32       9.96       0.02
H      10.23       8.49       7.63
H       3.48       8.58      15.04
H       2.68       9.01       1.27
H       1.88       4.06       1.23
H       1.20       3.85      14.96
H       2.17       2.51       0.40
H       3.47       3.85      13.82
H       4.13       4.06       0.08
H       2.90       6.21       0.25
H       2.19       6.03      14.01
H       1.76       7.64       3.04
H       6.90       5.39       3.33
H       2.46       7.00       4.54
H       1.57       8.54       4.56
H       4.05       8.95       4.65
H       3.36       9.61       3.17
H       2.60       7.91      10.77
H       1.28       6.73      10.77
H       1.77       7.52      12.28
H       3.51       5.58      10.63
H       2.66       5.14      12.11
H       7.40       7.92      11.95
H       6.77       5.36       0.84
H       7.32       7.94      14.44
H       6.71       0.62       6.88
H       4.81      13.27       6.89
H       7.11       3.10       6.94
C       5.62       6.93       5.04
C       7.81      12.16       8.03
C       4.69       0.80       7.64
C       6.84      13.09       7.63
C       8.34       6.56       7.65
C       3.15       7.35       7.63
C       9.82       6.42       7.64
C       1.67       7.48       7.63
C       4.48       7.82       1.48
C       4.30       6.48      13.81
C       4.54       7.83       2.90
C       5.62       6.95      10.25
C       4.34       6.45      12.40
C       5.44       6.95       3.55
C       5.48       6.97      11.75
C       6.23       6.06       2.81
C       6.54       7.51      12.48
C       6.15       6.05       1.42
C       6.49       7.53      13.87
C       5.28       6.92       0.75
C       5.38       7.02      14.54
C       3.63       8.83       0.75
C       5.93       1.29       7.23
C       4.38      10.16       0.57
C       3.68      11.35      15.11
C       3.13       5.86      14.55
C       3.32       4.35      14.79
C       2.02       3.59       0.24
C       3.58       8.68       3.70
C       2.27       7.92       3.97
C       3.16       5.97      11.60
C       2.14       7.10      11.34
C       5.59      12.59       7.23
C       6.16       2.66       7.25
C       5.36      11.22       7.24
C       4.02       3.08       8.05
C       7.51      10.80       8.02
C       3.72       1.72       8.05
N       5.22       3.53       7.65
N       6.30      10.35       7.63
O       5.84       8.03       5.62
O       5.64       5.82       9.68
O       5.57       5.78       5.60
O       5.74       8.09       9.68
O       7.86       7.73       7.73
O       3.64       6.18       7.70
O       7.68       5.47       7.58
O       3.81       8.44       7.57
