288

Ni       9.96       1.24       0.40
Ni       3.68      12.41       0.40
Ni       5.59      10.50      12.09
Ni       8.06       3.14      12.09
Ni       1.23       3.68      24.59
Ni      12.41       9.96      24.59
Ni      10.51       8.05      12.89
Ni       3.14       5.59      12.89
H      11.54       2.38      24.19
H      10.03       1.00      22.13
H      12.02       2.32      21.47
H      12.31       0.57      21.24
H      13.04       1.41      22.62
H       8.53      12.42       1.02
H       7.66      11.33       3.10
H       9.48       0.90       5.34
H      10.26       1.84       3.19
H       7.18      11.44       5.42
H       7.43       2.04       1.27
H       6.27       4.18       1.74
H      10.10       6.15       1.27
H      11.08       3.92       0.72
H       8.20       7.53       1.66
H       2.11      11.26      24.19
H       3.61      12.64      22.13
H       1.62      11.32      21.47
H       1.34      13.07      21.24
H       0.61      12.23      22.62
H       5.12       1.22       1.02
H       5.98       2.31       3.10
H       4.17      12.74       5.34
H       3.38      11.80       3.19
H       6.46       2.21       5.42
H       6.21      11.60       1.27
H       7.37       9.46       1.74
H       3.55       7.49       1.27
H       2.57       9.72       0.72
H       5.45       6.12       1.66
H       4.44       8.92      13.29
H       5.82      10.43      15.35
H       4.50       8.44      16.00
H       6.26       8.16      16.24
H       5.41       7.42      14.85
H       8.05      11.94      11.47
H       9.14      12.81       9.39
H       5.93      10.99       7.15
H       4.99      10.20       9.30
H       9.03      13.28       7.07
H       4.78      13.03      11.22
H       2.64       0.55      10.75
H       0.67      10.37      11.23
H       2.90       9.39      11.77
H      12.94      12.27      10.83
H       9.21       4.72      13.29
H       7.82       3.21      15.35
H       9.14       5.20      16.00
H       7.39       5.49      16.24
H       8.23       6.22      14.85
H       5.60       1.70      11.47
H       4.51       0.83       9.39
H       7.72       2.66       7.15
H       8.66       3.44       9.30
H       4.62       0.36       7.07
H       8.86       0.61      11.22
H      11.00      13.09      10.75
H      12.98       3.27      11.23
H      10.74       4.26      11.77
H       0.71       1.37      10.83
H       2.38       2.10       0.79
H       1.00       3.61       2.86
H       2.32       1.61       3.51
H       0.56       1.33       3.75
H       1.41       0.60       2.36
H      12.42       5.12      23.97
H      11.33       5.99      21.89
H       0.90       4.17      19.64
H       1.84       3.38      21.79
H      11.44       6.46      19.56
H       2.04       6.21      23.72
H       4.18       7.37      23.26
H       6.15       3.55      23.74
H       3.92       2.57      24.27
H       7.53       5.45      23.34
H      11.27      11.54       0.79
H      12.65      10.04       2.86
H      11.33      12.03       3.51
H      13.08      12.31       3.75
H      12.24      13.04       2.36
H       1.23       8.52      23.97
H       2.32       7.66      21.89
H      12.75       9.48      19.64
H      11.81      10.26      21.79
H       2.21       7.18      19.56
H      11.60       7.43      23.72
H       9.47       6.27      23.26
H       7.49      10.09      23.74
H       9.73      11.08      24.27
H       6.12       8.20      23.34
H       8.92       9.20      11.70
H      10.43       7.82       9.63
H       8.44       9.14       8.98
H       8.15       7.39       8.74
H       7.42       8.23      10.13
H      11.94       5.60      13.51
H      12.81       4.51      15.59
H      10.99       7.72      17.83
H      10.20       8.66      15.68
H      13.28       4.62      17.92
H      13.04       8.86      13.76
H       0.55      11.00      14.22
H      10.37      12.97      13.74
H       9.39      10.74      13.20
H      12.27       0.71      14.14
H       4.72       4.44      11.70
H       3.22       5.82       9.63
H       5.21       4.51       8.98
H       5.49       6.26       8.74
H       6.22       5.41      10.13
H       1.70       8.05      13.51
H       0.84       9.13      15.59
H       2.66       5.92      17.83
H       3.44       4.98      15.68
H       0.36       9.02      17.92
H       0.61       4.78      13.76
H      13.09       2.64      14.22
H       3.27       0.67      13.74
H       4.25       2.90      13.20
H       1.38      12.94      14.14
C      10.96      13.29      23.43
C      10.90       1.04      22.81
C      12.15       1.36      21.98
C       8.69      12.86       2.00
C       8.22      12.26       3.16
C       8.46      12.84       4.42
C       9.23       0.39       4.42
C       9.65       0.94       3.22
C       7.92      12.23       5.61
C       7.98       2.98       1.27
C       7.34       4.18       1.54
C       8.08       5.38       1.54
C       9.46       5.27       1.27
C      10.02       4.03       0.96
C       7.49       6.69       1.68
C       2.68       0.35      23.43
C       2.74      12.60      22.81
C       1.50      12.29      21.98
C       4.96       0.78       2.00
C       5.42       1.38       3.16
C       5.18       0.80       4.42
C       4.42      13.26       4.42
C       3.99      12.70       3.22
C       5.73       1.41       5.61
C       5.67      10.66       1.27
C       6.30       9.46       1.54
C       5.56       8.26       1.54
C       4.18       8.38       1.27
C       3.62       9.61       0.96
C       6.16       6.95       1.68
C       7.17       9.50      14.05
C       5.78       9.56      14.66
C       5.47       8.32      15.49
C       7.61      11.78      10.49
C       8.21      12.24       9.33
C       7.63      12.00       8.07
C       6.44      11.24       8.08
C       5.89      10.81       9.27
C       8.24      12.55       6.89
C       3.84      12.49      11.22
C       2.64      13.12      10.95
C       1.44      12.38      10.96
C       1.56      11.00      11.23
C       2.79      10.44      11.53
C       0.13      12.98      10.81
C       6.47       4.14      14.05
C       7.87       4.08      14.66
C       8.18       5.33      15.49
C       6.04       1.86      10.49
C       5.44       1.40       9.33
C       6.02       1.64       8.07
C       7.21       2.40       8.08
C       7.76       2.83       9.27
C       5.41       1.09       6.89
C       9.81       1.15      11.22
C      11.00       0.52      10.95
C      12.21       1.26      10.96
C      12.09       2.64      11.23
C      10.86       3.20      11.53
C      13.52       0.67      10.81
C      13.29       2.68       1.56
C       1.04       2.73       2.17
C       1.35       1.49       3.00
C      12.86       4.96      22.98
C      12.26       5.42      21.83
C      12.84       5.18      20.57
C       0.39       4.42      20.57
C       0.94       3.99      21.76
C      12.23       5.73      19.38
C       2.98       5.67      23.72
C       4.18       6.30      23.45
C       5.38       5.56      23.46
C       5.27       4.18      23.73
C       4.03       3.62      24.03
C       6.70       6.16      23.32
C       0.36      10.96       1.56
C      12.61      10.91       2.17
C      12.29      12.15       3.00
C       0.79       8.69      22.98
C       1.39       8.22      21.83
C       0.80       8.46      20.57
C      13.26       9.22      20.57
C      12.71       9.65      21.76
C       1.42       7.91      19.38
C      10.66       7.97      23.72
C       9.46       7.34      23.45
C       8.26       8.08      23.46
C       8.38       9.46      23.73
C       9.61      10.02      24.03
C       6.95       7.49      23.32
C       9.50       6.47      10.94
C       9.56       7.86      10.32
C       8.32       8.17       9.49
C      11.78       6.04      14.49
C      12.24       5.44      15.65
C      12.00       6.02      16.91
C      11.24       7.21      16.90
C      10.81       7.76      15.71
C      12.55       5.41      18.10
C      12.49       9.80      13.75
C      13.12      11.00      14.03
C      12.38      12.20      14.02
C      11.01      12.09      13.75
C      10.45      10.85      13.44
C      12.98      13.51      14.16
C       4.14       7.17      10.94
C       4.09       5.78      10.32
C       5.33       5.47       9.49
C       1.87       7.60      14.49
C       1.40       8.20      15.65
C       1.64       7.62      16.91
C       2.41       6.43      16.90
C       2.83       5.88      15.71
C       1.09       8.23      18.10
C       1.15       3.84      13.75
C       0.52       2.64      14.03
C       1.26       1.44      14.02
C       2.64       1.56      13.75
C       3.20       2.79      13.44
C       0.67       0.13      14.16
N      10.63       2.04      23.84
N       9.37       0.39       2.01
N       9.29       2.90       0.96
N       3.02      11.60      23.84
N       4.28      13.26       2.01
N       4.35      10.74       0.96
N       4.78       9.83      13.63
N       6.44      11.09      10.48
N       3.93      11.17      11.53
N       8.86       3.81      13.63
N       7.21       2.55      10.48
N       9.72       2.47      11.53
N       2.04       3.01       1.14
N       0.39       4.27      22.97
N       2.90       4.35      24.03
N      11.61      10.63       1.14
N      13.26       9.37      22.97
N      10.75       9.29      24.03
N       9.83       8.86      11.35
N      11.10       7.21      14.50
N      11.18       9.72      13.45
N       3.81       4.78      11.35
N       2.55       6.44      14.50
N       2.47       3.92      13.45
O      10.48      13.25      24.66
O      11.36      12.28      22.85
O       3.17       0.39      24.66
O       2.29       1.37      22.85
O       7.21       9.99      12.81
O       8.19       9.11      14.63
O       6.43       3.66      12.81
O       5.45       4.53      14.63
O      13.25       3.16       0.32
O      12.27       2.28       2.14
O       0.40      10.48       0.32
O       1.37      11.36       2.14
O       9.99       6.43      12.17
O       9.11       5.45      10.35
O       3.66       7.21      12.17
O       4.54       8.19      10.35
