62

Al       3.92       8.42       8.78
Al       0.60       8.43       8.81
H       2.23       7.65       7.23
H      -1.06       9.98       9.59
H      -2.47      12.38       7.80
H      -2.29      14.86       7.72
H       0.54      15.16       9.74
H       0.70       1.76       7.82
H       3.66       4.49       9.73
H       3.48       2.00       9.75
H       3.68       9.57       4.84
H       3.55       9.75       2.35
H       0.68       7.66       2.06
H       0.64       9.25      15.51
H      -2.39       7.36      12.69
H      -2.19       7.24      15.18
C      -1.08       8.52       6.35
C      -1.01       6.02       8.87
C       2.31       8.32      11.20
C       2.22      10.87       8.74
C       2.25      12.36       8.76
C      -3.27      13.01       8.20
C      -3.16      14.39       8.16
C       2.45      15.19       8.71
C       1.33      14.56       9.29
C       1.23      13.17       9.31
C       2.54      16.60       8.72
C      -1.32       0.30       8.76
C      -1.23       1.71       8.80
C      -0.09       2.35       8.27
C       0.01       3.74       8.29
C      -1.03       4.53       8.83
C       4.47       3.87       9.34
C       4.37       2.49       9.35
C      -1.06       8.56       4.86
C       4.48       9.17       4.21
C       4.40       9.27       2.83
C      -1.21       8.73       2.03
C      -0.11       8.10       2.66
C      -0.04       8.02       4.05
C      -1.27       8.78       0.62
C       2.63       8.19      16.93
C       2.54       8.22      15.52
C       1.42       8.81      14.90
C       1.31       8.85      13.51
C       2.33       8.31      12.69
C      -3.18       7.74      13.33
C      -3.07       7.68      14.71
Cl      -0.16      12.51      10.11
Cl       1.41       4.43       7.56
Cl       1.33       7.17       4.68
Cl      -0.09       9.64      12.89
O      -2.23       8.64       6.91
O       0.11       6.60       9.06
O       1.20       8.47      10.61
O       3.35      10.29       8.87
O       3.43       8.16      10.62
O       1.09      10.30       8.60
O       0.02       8.38       6.96
O      -2.13       6.60       8.71
O       2.26       7.89       8.18
O      -1.06       9.04       9.34
