47

Al       0.14       3.36       5.83
H       1.01       1.10       2.62
H       0.91      12.49       1.28
H       3.25      10.45       4.29
H       3.25      11.94       0.45
H       1.01       1.72       9.39
H       0.91       8.32       0.19
H       3.25       7.87       1.08
H       1.01       7.27       5.46
H       0.91       9.46       4.35
C       2.23       3.55       7.84
C       2.23       5.02       4.66
C       2.23       1.52       4.97
C       1.50       0.19       2.99
C       1.43      -0.98       2.24
C       2.05      11.29       2.69
C       2.74      -2.12       3.90
C       2.78      -0.95       4.65
C       2.17       0.23       4.22
C       2.74       4.44      11.54
C       2.78       4.50      10.15
C       2.17       3.54       9.35
C       1.50       2.49       9.99
C       1.43       2.43      11.38
C       2.05      10.13       0.53
C       2.74       7.78       2.04
C       2.78       6.54       2.67
C       2.17       6.32       3.91
C       1.50       7.41       4.50
C       1.43       8.64       3.86
C       2.05       8.84       2.61
N       1.98      10.09       1.94
N       3.50      -1.00       5.93
N       3.50       5.64       9.55
N       3.50       5.45       1.99
O       3.23       2.26       4.70
O       3.23       2.94       7.34
O       3.23       4.89       5.43
O       1.25       1.81       5.72
O       1.25       4.23       4.53
O       1.25       4.05       7.23
O       3.30      -0.07       6.72
O       0.08      -1.97       6.14
O       3.30       5.86       8.35
O       0.08       6.31      10.28
O       3.30       4.30       2.40
O       0.08       5.75       1.05
