116

Zn       9.70       9.00      14.06
Zn       6.93       9.01      14.07
H       6.18       9.09      18.34
H       2.30       7.48      15.59
H      11.82       7.54      15.53
H       4.82      10.46      12.60
H      11.81      10.45      12.59
H       4.81       7.55      15.53
H       6.18       9.10      20.86
H      10.46       9.07       7.27
H       9.17       5.79      24.70
H       7.00      12.06       3.43
H       6.17       8.90       9.79
H      10.45       9.08       9.78
H      10.47       8.94      18.34
H       6.16       8.89       7.28
H      10.48       8.94      20.85
H       9.60       5.87       3.46
H       7.50      12.29      24.67
H       9.56       5.80       0.98
H       7.46      12.33      27.14
H       9.23       5.78      27.17
H       7.03      12.10       0.95
H      10.50      15.75      13.63
H      10.48      13.26      13.85
H       6.13       2.26      13.63
H      10.44       2.24      13.63
H       6.19      15.77      13.63
H       6.15       4.75      13.86
H      10.44       4.73      13.86
H       6.19      13.28      13.85
H      14.34       7.48      15.60
H       2.30      10.53      12.52
H      14.33      10.52      12.52
C       8.30       6.37      14.02
C       8.77       7.83       3.58
C       8.32       9.01      18.20
C       8.31       9.00       9.93
C       8.72       7.78       0.74
C       7.98      10.25      27.39
C       7.86      10.12       0.73
C       8.71       7.86      27.40
C       8.30       8.95       1.43
C       8.34       9.05      26.69
C       9.20       6.69       1.49
C       8.33      11.63      13.98
C       7.70      11.40      26.64
C       9.23       6.72       2.88
C       7.72      11.39      25.24
C       8.32       9.00      16.70
C       8.31       9.00      11.43
C       8.99       6.70      26.66
C       7.39      11.21       1.47
C       9.56      15.20      13.67
C       7.07       2.80      13.68
C       9.50       2.79      13.68
C       8.34       9.04      25.26
C       7.13      15.21      13.67
C       9.55      13.82      13.80
C       7.08       4.18      13.82
C       9.50       4.17      13.81
C       7.13      13.83      13.79
C       8.33      13.12      13.86
C       8.30       4.88      13.89
C       8.35      15.93      13.62
C       8.28       2.08      13.63
C       8.36      17.34      13.55
C       8.30       8.96       2.86
C       8.28       0.67      13.55
C      13.82       8.15      14.92
C       2.82       9.86      13.20
C      13.81       9.85      13.20
C       2.82       8.15      14.92
C      12.43       8.18      14.89
C       4.21       9.83      13.24
C      12.42       9.81      13.24
C       4.20       8.19      14.89
C      14.54       9.00      14.06
C       8.65       7.85      24.56
C       2.09       9.00      14.06
C      15.95       9.00      14.06
C       0.68       9.00      14.06
C       8.64       7.82      23.08
C       7.82      10.13       5.05
C       8.02      10.25      23.07
C       8.79       7.82       5.06
C       9.54       8.98      20.29
C       7.10       8.93       7.83
C       9.54       8.97      18.90
C       7.83      10.10       3.57
C       7.10       8.94       9.23
C       7.12       9.05      18.91
C       9.52       9.04       9.22
C       7.12       9.06      20.30
C       9.52       9.04       7.83
C       8.33       9.02      20.98
C       8.31       8.99       7.15
C       8.95       6.70      25.26
C       7.37      11.20       2.86
C       8.02      10.22      24.55
N       8.33       9.03      22.43
N       8.31       8.98       5.70
N      11.75       8.99      14.06
N       4.88       9.01      14.07
O       9.44       6.95      14.06
O       7.42      11.10       5.69
O       9.19       6.85       5.71
O       7.76      11.26      22.42
O       7.19      11.05      14.02
O       9.46      11.04      14.03
O       7.17       6.96      14.07
O       9.45       8.98      16.11
O       7.18       9.00      12.01
O       9.45       9.01      12.01
O       7.19       9.01      16.12
O       8.90       6.80      22.44
