78

Zn       3.27       5.11       6.82
Zn       3.42       2.68       8.95
Zn       5.38       5.23       9.21
Zn       5.71       3.14       6.74
H       5.09       2.71       0.02
H       4.19       0.77      14.47
H       5.86       1.22      14.82
H       4.63       5.91      15.15
H       3.93      10.54       0.57
H       2.35      10.25       2.47
H       1.53       7.97       3.07
H       2.32       6.00       1.81
H       6.95      -1.63      10.08
H       6.45      -0.02       9.48
H       5.32      -1.02      10.43
H       4.15      -0.64       5.49
H       3.11       8.59       5.61
H       1.51       8.72       6.33
H       0.48       4.95      10.12
H       1.50       7.08      10.86
H       2.74      -1.53       9.82
H      -0.96       9.25       8.07
H       8.86       7.12       7.31
H      10.03       2.70       5.21
H       9.40       0.43       4.42
H       6.87       9.43       6.07
H       8.88      -0.84       8.51
H       9.50       1.44       9.29
C       4.81       0.46       7.64
C       3.90       7.60       8.26
C       0.90       3.66       7.80
C       7.98       4.51       8.05
C       4.34       3.72      11.55
C       4.54       4.28       4.31
C       4.26       3.61      12.98
C       4.02       3.33      15.58
C       4.47       4.76       0.28
C       4.49       4.58       1.67
C       4.16       3.48      14.19
C       4.55       4.39       2.88
C       3.66       9.06       8.41
C       4.97      -1.01       7.44
C       9.47       4.61       8.13
C      -0.60       3.56       7.76
C       4.89       0.97      15.28
C       3.59       7.14       0.48
C       4.01       8.43       0.13
C       3.58       9.54       0.84
C       2.69       9.38       1.91
C       2.24       8.10       2.25
C       2.68       6.99       1.54
C       6.11      -1.05       9.67
C       2.44       9.28       6.14
C      -0.79       5.88       8.64
C       0.18       5.89       9.65
C       0.75       7.09      10.08
C       0.35       8.30       9.50
C      -0.64       8.31       8.51
C      -1.21       7.11       8.09
C       9.78       2.22       7.30
C       9.77       1.92       5.93
C       9.42       0.65       5.49
C       9.10      -0.35       6.42
C       9.12      -0.07       7.78
C       9.47       1.21       8.23
O       4.45       4.03       7.96
O       5.60       1.19       6.96
O       3.26       6.98       7.35
O       1.50       2.94       8.66
O       7.32       5.13       8.95
O       3.74       2.81      10.89
O       5.31       3.41       4.83
O       5.00       4.71      11.09
O       3.76       5.09       4.92
O       1.43       4.42       6.92
O       7.50       3.83       7.09
O       3.89       0.85       8.43
O       4.75       7.08       9.07
