192

Zn       2.66       8.50      13.89
Zn      -7.70       7.33      26.10
Zn      -2.67       2.05      12.77
Zn       7.69       3.22       0.56
H       4.70       9.29       2.00
H      -0.48      10.39      11.33
H      -4.71       1.26      24.67
H       0.47       0.16      15.33
H       4.89       6.91       5.59
H      -0.29      12.78       7.74
H      -4.89       3.64      21.07
H       0.28      -2.23      18.92
H       5.00      13.67       0.88
H      -0.18       6.02      12.45
H      -5.01      -3.12      25.78
H       0.17       4.53      14.22
H       5.38      11.40       1.79
H       0.20       8.28      11.53
H      -5.38      -0.85      24.87
H      -0.21       2.27      15.13
H       2.19      11.99       4.62
H      -2.99       7.70       8.71
H      -2.20      -1.44      22.04
H       2.98       2.85      17.95
H       1.86      10.26       9.62
H      -3.32       9.43       3.71
H      -1.86       0.29      17.04
H       3.31       1.12      22.95
H       5.35       7.35       7.64
H       0.18      12.34       5.69
H      -5.36       3.20      19.03
H      -0.18      -1.79      20.97
H       4.92       7.30      10.09
H      -0.25      12.39       3.24
H      -4.93       3.25      16.58
H       0.25      -1.84      23.42
H       2.29      10.34       7.16
H      -2.89       9.35       6.17
H      -2.30       0.21      19.51
H       2.88       1.20      20.49
H       6.95      -0.14       3.66
H      -3.41       5.41       9.68
H      -6.95      10.69      23.01
H       3.41       5.14      16.99
H       0.28       8.38      14.44
H       0.27       7.44      25.55
H      -0.28       2.17      12.22
H      -0.27       3.11       1.11
H       0.35       9.54      15.47
H       0.35       6.28      24.52
H      -0.36       1.01      11.19
H      -0.35       4.27       2.14
H       6.47       8.10       1.48
H       1.29      11.58      11.85
H      -6.48       2.45      25.18
H      -1.30      -1.03      14.81
H       7.50       6.15       0.27
H      -2.86      -0.88      13.06
H      -7.51       4.40      26.39
H       2.85      11.43      13.60
H       5.89       3.43       2.91
H       5.88       1.84      10.43
H      -5.89       7.12      23.75
H      -5.89       8.71      16.24
H       4.68       5.23       4.18
H       4.68       0.04       9.16
H      -4.69       5.32      22.49
H      -4.69      10.51      17.51
C       5.47       6.83       2.93
C       0.29      12.86      10.40
C      -5.48       3.72      23.73
C      -0.30      -2.31      16.26
C       4.86       7.94       3.69
C      -0.32      11.75       9.64
C      -4.87       2.61      22.98
C       0.31      -1.20      17.02
C       4.03      10.21       3.84
C      -1.14       9.48       9.49
C      -4.04       0.34      22.82
C       1.14       1.07      17.18
C       4.09       8.91       5.77
C      -1.09      10.78       7.56
C      -4.09       1.64      20.90
C       1.08      -0.23      19.10
C       4.55       9.15       3.07
C      -0.63      10.53      10.26
C      -4.55       1.40      23.60
C       0.63       0.02      16.40
C       3.79      11.54       3.26
C      -1.39       8.14      10.07
C      -3.79      -0.99      23.41
C       1.39       2.41      16.59
C       3.84       8.84       7.23
C      -1.34      10.85       6.10
C      -3.84       1.71      19.44
C       1.34      -0.30      20.56
C       4.63       7.83       5.07
C      -0.54      11.86       8.27
C      -4.64       2.72      21.60
C       0.54      -1.31      18.40
C       3.10       8.73      11.47
C      -2.07      10.95       1.86
C      -3.11       1.82      15.20
C       2.07      -0.40      24.80
C       3.36       8.78      10.00
C      -1.82      10.91       3.33
C      -3.37       1.77      16.66
C       1.81      -0.36      23.33
C       4.37      13.30       1.69
C      -0.81       6.39      11.64
C      -4.37      -2.75      24.97
C       0.80       4.16      15.02
C       4.57      12.02       2.20
C      -0.61       7.67      11.13
C      -4.58      -1.47      24.47
C       0.60       2.88      15.53
C       8.53      -0.30       2.22
C      -1.82       5.57      11.12
C      -8.54      10.85      24.45
C       1.82       4.98      15.55
C       2.79      12.37       3.80
C      -2.39       7.32       9.54
C      -2.79      -1.82      22.87
C       2.39       3.23      17.13
C       2.62       9.63       9.17
C      -2.55      10.05       4.16
C      -2.63       0.92      17.49
C       2.55       0.50      22.51
C       4.57       7.98       8.06
C      -0.61      11.71       5.27
C      -4.58       2.57      18.60
C       0.60      -1.16      21.39
C       4.34       7.95       9.43
C      -0.84      11.74       3.90
C      -4.35       2.60      17.23
C       0.83      -1.19      22.77
C       2.86       9.67       7.80
C      -2.32      10.02       5.53
C      -2.86       0.88      18.86
C       2.31       0.53      21.14
C       2.56      13.63       3.27
C      -2.62       6.05      10.06
C      -2.57      -3.08      23.39
C       2.61       4.50      16.60
C       8.29       1.05       1.66
C      -2.07       4.22      11.68
C      -8.30       9.50      25.01
C       2.06       6.33      14.99
C       6.28       7.08       1.81
C       1.10      12.61      11.53
C      -6.28       3.47      24.86
C      -1.10      -2.05      15.14
C       6.88       6.02       1.15
C       6.87      -0.75      12.18
C      -6.88       4.53      25.51
C      -6.88      11.30      14.48
C       5.96       4.48       2.63
C       5.96       0.79      10.71
C      -5.97       6.07      24.04
C      -5.96       9.76      15.95
C       5.31       5.49       3.33
C       5.31      -0.22      10.01
C      -5.32       5.06      23.34
C      -5.32      10.77      16.66
N       3.78      10.07       5.16
N      -1.39       9.62       8.17
N      -3.79       0.48      21.51
N       1.39       0.93      18.49
N       6.73       4.74       1.55
N       6.73       0.53      11.78
N      -6.74       5.81      25.11
N      -6.73      10.02      14.88
O       2.20       9.49      11.99
O      -2.98      10.20       1.34
O      -2.20       1.06      14.68
O       2.97       0.35      25.32
O       3.78       7.94      12.20
O      -1.41      11.76       1.13
O      -3.78       2.61      14.46
O       1.40      -1.21      25.54
O       9.06       1.51       0.73
O      -1.30       3.76      12.60
O      -9.07       9.04      25.93
O       1.29       6.79      14.06
O       7.31       1.75       2.08
O      -3.05       3.52      11.26
O      -7.31       8.80      24.59
O       3.05       7.03      15.41
O       0.48       9.35      14.53
O       0.47       6.48      25.46
O      -0.48       1.21      12.13
O      -0.48       4.07       1.20
