160

Zn      18.73      22.42      13.06
Zn      17.34       1.57      10.84
Zn       2.10      13.55      22.82
Zn       1.62      10.06       0.85
H      18.12      16.05      22.14
H      17.96      17.73      20.27
H       3.44      15.26      18.04
H      17.27      20.59      17.76
H       3.00      18.31      15.64
H       2.81      19.99      13.77
H      17.42       9.74       3.29
H      17.11       8.13       5.21
H       2.80       5.60       3.34
H      16.08       6.00       8.29
H       1.94       3.57       6.55
H       1.61       1.96       8.46
H       4.25       1.90      10.62
H       6.76       1.90      10.64
H       8.37      21.64      13.85
H      10.47       1.55       9.52
H      12.13      22.82      13.61
H      14.64      22.79      13.58
H       2.00      12.79       4.10
H       1.93      14.58       5.85
H       1.33      17.51       2.76
H       1.88      16.70       9.04
H      18.70      19.66       5.94
H      18.74      21.45       7.70
H       1.09      11.06      19.60
H      17.61       9.39      17.87
H      16.71       6.62      21.03
H       0.95       7.09      14.94
H      16.07       4.59      17.70
H      16.21       2.69      16.05
H       6.20      13.24      22.21
H       8.72      13.28      22.20
H       8.49       9.93       2.07
H      12.51      14.11      21.79
H      12.19      10.04       1.25
H      14.70      10.09       1.33
C       4.23      23.15      12.07
C       1.68      21.28      10.30
C      16.32      23.39      11.68
C      17.26       2.64      13.66
C       1.81      12.96       1.49
C      16.62      12.93      23.85
C       1.35      10.80      22.18
C       4.52      12.43      24.03
C       1.42      15.93      21.22
C       1.33      16.85      20.19
C       2.09      16.61      19.02
C       2.87      15.46      18.94
C       2.88      14.59      20.02
C      17.89      20.43      16.89
C      18.76      19.34      16.84
C       2.30      19.15      15.70
C       2.20      20.07      14.67
C      17.85      21.29      15.79
C       0.71       8.80       3.35
C      17.81       7.92       4.41
C       1.31       6.74       4.40
C       2.20       6.51       3.36
C       2.30       7.45       2.34
C      16.71       5.11       8.30
C       0.39       4.91       7.29
C       1.20       3.76       7.32
C       1.01       2.87       8.37
C      16.58       4.15       9.30
C       5.73      23.06      12.19
C       4.80       1.26      11.31
C       6.19       1.27      11.32
C       8.56      23.05      12.24
C       7.83      22.26      13.14
C       6.43      22.25      13.11
C      11.02       1.25      10.41
C      10.31       0.88      11.55
C      12.69      23.10      12.72
C      14.07      23.09      12.70
C      13.13       0.84      11.55
C      12.42       1.23      10.40
C       1.73      14.12       2.45
C       1.86      13.83       3.82
C       1.82      14.82       4.79
C       1.63      16.16       4.40
C       1.48      16.47       3.05
C       1.54      15.46       2.08
C       1.78      17.75       8.75
C       1.65      18.07       7.39
C       1.53      19.42       7.00
C       1.55      20.40       7.97
C       1.68      20.11       9.35
C       1.79      18.75       9.72
C      18.02       9.77      21.27
C      18.00      10.07      19.89
C      17.59       9.16      18.94
C      17.16       7.89      19.36
C      17.08       7.59      20.72
C      17.51       8.52      21.67
C      17.75       6.13      15.16
C      17.14       5.94      16.41
C      16.54       4.71      16.73
C      16.62       3.67      15.82
C      17.25       3.83      14.57
C       0.54       5.08      14.25
C       5.83      10.75       0.08
C       6.77      12.88      23.06
C       8.16      12.90      23.06
C       8.65      10.79       0.10
C       7.94      10.29       1.20
C       6.54      10.28       1.20
C      13.04      13.61      22.60
C      12.30      12.92      23.56
C      12.77      10.59       0.51
C      14.15      10.63       0.55
C      15.12      12.98      23.69
C      14.43      13.64      22.66
N       2.19      14.82      21.15
N       2.13      17.44      17.87
N       1.46      18.50      17.98
N      18.61      21.12      14.71
N       1.57       8.58       2.33
N       1.27       5.72       5.39
N      17.70       5.94       6.31
N      17.36       3.05       9.35
N       9.96      22.97      12.36
N       8.90       0.93      11.42
N       1.58      17.26       5.28
N       1.68      16.96       6.51
N      16.88       6.82      18.48
N      17.26       7.04      17.29
N      10.06      10.76       0.25
N      10.90      12.96      23.40
Cl       3.82      13.16      19.90
Cl      16.76      22.61      15.86
Cl       3.40       7.14       1.07
Cl      15.38       4.40      10.49
Cl       5.67      21.22      14.28
Cl      13.17       1.66       8.90
Cl       1.30      15.97       0.44
Cl       1.99      18.23      11.36
Cl      17.36       8.06      23.33
Cl       1.39       5.37      12.76
Cl       5.80       9.67       2.64
Cl      15.23      14.50      21.38
O       3.52      22.33      12.73
O       2.10       1.47      11.30
O       2.04      22.39       9.81
O      18.56      21.07      11.50
O      15.33       1.23      10.72
O      16.77      22.91      12.77
O      17.38       1.50      14.21
O      17.11       2.86      12.42
O       2.23      13.19       0.31
O       1.46      11.83       1.96
O      16.87      10.30       0.45
O      17.32      13.83      23.30
O       1.80      10.44      23.31
O       1.39      11.99      21.72
O       4.06      12.95      22.97
O       3.64      10.31       0.90
