85

Zn       0.90       2.38       5.32
Zn      14.23       7.91       5.32
Zn       3.53      11.06       0.00
H      13.86      14.14       7.41
H       9.47       6.31       3.81
H       8.25       4.48       7.54
H       4.88       7.48       7.61
H      11.46       4.80       3.83
H       7.12       6.38       7.79
H       7.29       6.39       3.47
H       5.06       7.51       3.48
H       8.59       6.87      10.18
H      12.79       9.00       0.28
H      10.30       8.92       0.35
H      11.07       6.75      10.13
H       3.05       1.67       3.24
H       7.44       9.51       6.84
H       8.65      11.33       3.11
H      12.02       8.33       3.04
H       5.44      11.01       6.82
H       9.78       9.43       2.86
H       9.62       9.42       7.18
H      11.85       8.31       7.17
H       8.32       8.95       0.46
H       4.12       6.81      10.37
H       6.60       6.90      10.30
H       5.84       9.07       0.51
C      10.09       3.83       6.65
C       2.20       5.35       6.58
C       5.30      14.29       8.19
C       7.41       6.28       5.64
C       9.60       5.60       4.63
C       8.95       4.61       6.71
C       5.47       7.24       6.72
C       2.40       5.01       5.14
C       1.95       4.66       7.77
C       8.67       5.51       5.67
C      10.73       4.79       4.64
C       6.71       6.62       6.81
C       6.81       6.64       4.42
C       5.57       7.26       4.41
C       8.33       4.74      10.61
C       9.07       5.91      10.35
C      12.19       9.90       0.12
C      10.79       9.87       0.16
C      10.46       5.86      10.32
C       6.81      11.99       4.00
C      14.71      10.46       4.07
C      11.61       1.52       2.46
C       9.50       9.53       5.01
C       7.30      10.21       6.02
C       7.96      11.20       3.94
C      11.44       8.58       3.93
C      14.50      10.80       5.51
C      14.95      11.16       2.88
C       8.24      10.30       4.98
C       6.18      11.03       6.01
C      10.20       9.20       3.84
C      10.09       9.17       6.23
C      11.34       8.56       6.23
C       8.57      11.07       0.03
C       7.83       9.90       0.29
C       4.72       5.91      10.52
C       6.11       5.94      10.48
C       6.44       9.96       0.32
N      13.86       6.66       6.93
N      10.96       3.90       5.62
N       4.89       7.54       5.54
N      13.69       6.81       8.24
N      13.48       5.60       8.75
N      11.15       4.72      10.54
N       3.04       9.15       3.72
N       5.94      11.91       5.02
N      12.01       8.27       5.11
N       3.22       9.00       2.40
N       3.42      10.22       1.89
N       5.76      11.09       0.11
O       2.35       3.80       4.76
O       2.63       6.00       4.36
O       5.05      13.40       7.33
O       5.38      14.07       9.44
O      14.55      12.01       5.89
O      14.27       9.82       6.29
O      11.85       2.42       3.32
O      11.53       1.75       1.20
