48

Al       6.17       6.17       6.28
Al       9.61       6.17       6.28
H       4.47       4.79       7.38
H       7.87       7.55       5.18
H       6.47      10.33       6.62
H       5.87       2.01       5.94
H       5.85       7.20      10.19
H       9.95       5.91      10.36
H       7.65       4.42       0.28
H       6.49       5.13       2.37
H       2.39       6.42       2.21
H       4.69       7.91      12.29
C       7.89       6.37       8.67
C       7.88       3.77       6.20
C       4.45       5.97       3.90
C       4.46       8.57       6.36
C       7.96       2.27       6.21
C       4.37      10.07       6.35
C       2.28       1.59       6.38
C      10.05      10.75       6.18
C       5.53      10.84       6.45
C       6.81       1.50       6.10
C       6.74       6.99      10.78
C       9.06       6.26      10.89
C       9.06       6.38      12.26
C       5.61       5.16       0.38
C       5.60       5.34       1.78
C       3.28       6.08       1.68
C       3.28       5.95       0.31
C       6.72       7.18      12.19
C       7.89       6.55      10.14
C       4.45       5.78       2.42
N       3.56       2.32       6.41
N       8.78      10.01       6.14
O       6.76       6.27       8.09
O       9.01       4.37       6.24
O       3.30       6.04       4.46
O       5.60       8.04       6.38
O       5.58       6.07       4.47
O       3.33       7.97       6.33
O       9.04       6.30       8.10
O       6.73       4.30       6.18
O       4.45       5.61       6.87
O       7.89       6.73       5.70
O       4.08       2.54       5.31
O       4.05       2.60       7.51
O       8.29       9.73       5.04
O       8.26       9.80       7.25
