126

Mg       1.73      15.37       7.98
Mg       0.20      -1.03      16.83
Mg       4.01      13.59       7.60
Mg      -2.08       0.71      17.37
Mg      -0.56      14.16       9.33
Mg       2.49       0.31      15.60
H      -0.86       1.03      23.97
H      -1.96      -0.27      20.69
H       2.70       1.38      21.07
H       1.24       1.38      23.09
H      -3.35       1.17      24.81
H       0.04      14.44       0.67
H       5.32      12.54       0.29
H       1.98      -0.81      24.25
H       2.93      12.49       1.14
H       3.90      14.23       4.21
H      -0.76      12.54       3.98
H       0.72      12.32       1.98
H       3.71       5.86      12.01
H       2.61       3.67      14.78
H       0.42       3.18      13.16
H      -1.05       4.92      12.15
H       1.22       6.52      11.47
H       2.33       7.73      12.06
H       0.74       8.35      13.90
H      -0.31       7.02      13.46
H      -1.65       9.11      13.52
H      -0.68      10.90      10.48
H       1.52      11.54      12.04
H       3.00       9.93      13.24
H       1.42      -6.91      13.82
H       0.33      -3.42      14.32
H       4.99      -4.58      15.56
H       3.52      -6.32      14.56
H      -1.07      -7.70      13.51
H      -2.24      20.94      12.17
H       3.03      22.23      10.72
H       4.26      -6.23      12.09
H       0.64      21.52      10.25
H       1.61      17.99      10.22
H       3.81      19.03       8.88
H      -1.57      20.87       9.68
C      -2.41      -0.17      23.42
C      -0.45       0.53      22.02
C      -0.94       0.10      20.79
C      -0.14       0.13      19.63
C       1.22       0.58      19.75
C       1.67       1.03      21.01
C       0.86       1.03      22.13
C       2.17       0.60      18.63
C      -3.01       0.12      24.78
C       4.97      13.58       0.20
C       4.27      13.99       1.48
C       2.40      13.28       2.97
C       2.88      13.85       4.15
C       2.07      13.95       5.29
C       0.71      13.48       5.21
C       0.26      12.90       4.01
C       1.08      12.78       2.90
C      -0.24      13.58       6.33
C       2.16       5.98      13.33
C       4.12       4.42      13.42
C       3.63       3.57      14.41
C       4.44       2.56      14.96
C      -1.06       2.44      14.51
C      -0.61       3.30      13.49
C      -1.42       4.27      12.94
C      -0.12       1.45      15.05
C       1.56       7.02      12.39
C       0.40       7.75      13.04
C      -0.30       8.66      12.04
C      -2.18      10.30      11.91
C      -1.70      11.04      10.83
C       4.35      11.98      10.18
C       3.00      12.14      10.61
C       2.55      11.39      11.72
C       3.37      10.49      12.38
C       2.05      13.06       9.97
C      -0.13      -5.83      13.05
C       1.83      -4.97      14.36
C       1.34      -3.69      14.60
C       2.15      -2.70      15.20
C       3.51      -3.03      15.53
C       3.96      -4.34      15.29
C       3.15      -5.31      14.73
C       4.46      -2.07      16.11
C      -0.73      -7.16      12.62
C       2.69      21.79      11.66
C       1.99      20.47      11.38
C       0.11      19.53      10.02
C       0.59      18.23       9.92
C      -0.22      17.19       9.44
C      -1.58      17.49       9.08
C      -2.02      18.82       9.17
C      -1.20      19.84       9.62
C       4.33      16.47       8.60
N      -1.24       0.51      23.18
N       3.21      13.18       1.83
N       3.34       5.44      12.85
N      -1.36       9.36      12.57
N       1.05      -5.97      13.76
N       0.92      20.58      10.50
O      -1.43      13.13       6.23
O       0.16      14.14       7.43
O       2.62      14.46       6.40
O       3.36       1.04      18.77
O       1.77       0.15      17.48
O      -0.69      -0.27      18.48
O      -2.95      -0.92      22.60
O       4.63      14.97       2.15
O       0.86      13.20      10.41
O       2.44      13.73       8.93
O      -1.95      12.68       9.18
O       1.07       1.35      14.60
O      -0.52       0.69      16.02
O       3.88       1.76      15.88
O       1.62       5.65      14.39
O       0.05       8.75      10.86
O       3.15      16.78       8.26
O      -2.13      15.24       8.54
O       0.34      15.98       9.33
O      -1.22      -2.41      16.41
O       4.06      -0.85      16.28
O       1.59      -1.50      15.43
O      -0.66      -4.75      12.81
O       2.34      19.40      11.89
