70

Zn       6.47       5.43       7.58
Zn       5.86       8.38       7.62
H       6.98       5.06       0.88
H       7.92      10.97       9.78
H       4.73       4.10       6.08
H       4.28       2.54       5.56
H       6.81      12.59      10.69
H       7.88      -0.00      10.05
H       4.58      13.84       5.02
H       5.57       1.25       4.46
H       6.31       8.76      14.37
H       6.94       5.01       3.37
H       6.47       8.81      11.89
H       5.07       8.86       3.43
H       5.67       4.60      11.73
H       5.05       8.91       0.94
H       5.45       4.54      14.21
H       6.98       9.53       9.71
C       6.04       6.91       5.04
C       7.82       2.73       8.01
C       6.17      11.16       8.76
C       6.04       2.60       6.54
C       6.09      12.59       8.80
C       6.27       1.19       6.37
C       5.41      13.27       7.74
C       6.95       0.50       7.40
C       3.62       6.40       7.69
C       8.64       7.66       7.47
C      10.07       7.83       7.43
C       6.23       6.72      10.17
C       2.18       6.30       7.61
C      12.68       7.69       7.47
C      -0.42       6.48       7.51
C       0.96       6.35       7.55
C      11.30       7.80       7.44
C       6.53       5.88       1.43
C       6.15       7.85      13.79
C       6.53       5.86       2.82
C       6.25       7.88      12.40
C       6.01       6.94       3.55
C       5.49       8.06       1.47
C       6.10       6.70      11.66
C       5.48       8.04       2.86
C       5.81       5.50      12.32
C       5.70       5.48      13.71
C       6.02       6.99       0.73
C       5.88       6.65      14.47
C       4.36      12.43       7.17
C       7.98       1.35       8.00
C       4.46      11.05       7.22
N       5.44      10.42       7.91
N       6.77       3.34       7.39
N       7.00      10.56       9.68
N       5.05       3.17       5.79
N       6.69      13.18       9.87
N       5.72       0.63       5.24
Cl      12.41       5.01       7.51
Cl      -0.14       9.15       7.47
Cl       2.81      13.08       6.77
Cl       9.57       0.74       8.29
Cl       3.28      10.06       6.46
Cl       8.99       3.74       8.75
O       6.48       5.84       5.58
O       6.41       7.85       9.60
O       5.62       7.94       5.66
O       6.16       5.61       9.56
O       4.32       5.40       7.34
O       7.90       8.69       7.32
O       4.06       7.52       8.12
O       8.27       6.46       7.67
