110

Zn       5.98       8.03      11.88
Zn       8.75       8.04      11.88
H       9.21       7.27      18.74
H       9.19       8.98       5.03
H       5.28       8.58      16.04
H       5.39       7.27       7.70
H       8.59      15.22       9.91
H       6.15       0.86      13.84
H       6.29       0.87       9.84
H       8.44      15.20      13.91
H       9.68       0.81      11.96
H       5.05      15.27      11.79
H       0.81       9.83      10.43
H      13.92       6.24      13.33
H       0.82       5.89      11.04
H      13.91      10.18      12.73
C       7.39      10.61      11.87
C       7.39       5.46      11.90
C       7.33       8.01      14.47
C       7.36       8.07       9.29
C       7.34       6.82       2.93
C       7.14       9.22      20.83
C       7.02       9.30       2.88
C       7.07       6.72      20.88
C       7.09       9.25       1.40
C       7.14       6.77      22.36
C       7.15       8.01       0.71
C       7.08       8.02      23.04
C       7.23       6.80       1.45
C       7.04       9.23      22.31
C       7.05      10.43       0.65
C       7.21       5.60      23.11
C       6.96      10.43      23.00
C       7.26       5.59       0.76
C       8.35       7.56      18.15
C       8.36       8.60       5.62
C       8.43       7.56      16.75
C       8.43       8.61       7.01
C       7.33       7.95      15.97
C       7.36       8.12       7.78
C       6.15       8.30      16.63
C       6.23       7.64       7.12
C       6.06       8.30      18.02
C       6.15       7.63       5.73
C       7.17       7.93      18.79
C       7.23       8.10       4.97
C       6.76       0.48      10.74
C       7.97      15.60      13.00
C       8.05      15.61      10.78
C       6.68       0.47      12.96
C       7.38      12.05      11.86
C       7.39       4.02      11.90
C       6.09      15.63      11.83
C       8.65       0.44      11.92
C       7.35      14.68      11.86
C       7.38       1.39      11.88
C       7.36      13.27      11.86
C       7.39       2.81      11.89
C       0.44       9.04      11.09
C      14.29       7.03      12.68
C      14.32       7.84      10.63
C       0.41       8.23      13.14
C      14.29       9.23      12.34
C       0.45       6.84      11.43
C      13.37       8.03      11.87
C       1.36       8.04      11.90
C      11.96       8.03      11.86
C       2.78       8.05      11.90
N       7.25       8.08       3.53
N       7.18       7.96      20.23
N      10.80       8.03      11.90
N       3.93       8.04      11.87
N       7.06      11.76       1.31
N       7.35       4.27      22.45
N      13.92       7.63       9.23
N       0.81       8.44      14.55
N       6.85      11.74      22.29
N       7.28       4.28       1.47
N       4.77       8.67      18.62
N       4.91       7.13       5.13
Cl       9.92       7.02      16.07
Cl       9.84       9.29       7.72
O       6.29      10.03      12.15
O       8.49       6.04      12.19
O       8.50      10.04      11.58
O       6.28       6.04      11.60
O       6.22       7.74      13.91
O       8.44       7.75       9.86
O       8.41       8.34      13.90
O       6.24       8.32       9.84
O       7.51       5.81       3.60
O       7.22      10.24      20.16
O       6.77      10.32       3.51
O       6.93       5.68      20.25
O       8.16      12.15       1.72
O       5.99      12.37       1.32
O       8.48       3.99      22.04
O       6.35       3.56      22.44
O       0.10       7.51       8.43
O      12.72       7.60       8.97
O      14.63       8.57      15.33
O       2.02       8.47      14.80
O       7.89      12.40      22.24
O       5.73      12.05      21.90
O       8.38       3.72       1.52
O       6.20       3.87       1.87
O       4.56       8.34      19.80
O       3.96       9.27      17.91
O       4.69       7.39       3.93
O       4.14       6.48       5.85
