102

Zn       9.30       8.08       1.61
Zn       6.82      10.26       1.61
Zn      -0.23       2.24      13.44
Zn       2.22       0.08      13.44
H      12.56       7.77       1.73
H       6.10      13.46       1.73
H      11.28      14.77       6.09
H      13.20      13.06       6.10
H      -5.16      11.77       7.31
H      12.33      -3.60       7.28
H      -3.95      13.16       8.76
H      13.54      -2.23       8.75
H      10.03      12.77       9.00
H      11.35      11.60       9.00
H      -4.77      -4.08      10.46
H      -3.45      -5.25      10.45
H      -1.63       5.23      12.75
H       5.37      -0.93      12.76
H       4.69       2.07      12.87
H       1.43       4.94      12.87
H       8.77       6.70       4.73
H       5.52       9.57       4.73
H      -2.07       0.94      11.09
H       1.18      -1.91      11.09
H       0.46      -2.61      13.28
H      -2.67       0.14      13.29
H       4.37       8.37       2.36
H       7.74       5.40       2.36
H      -3.55      -2.07       7.55
H      -1.62      -3.78       7.54
C      12.23       7.55       0.72
C       5.92      13.09       0.72
C       0.66      -2.31      14.31
C      -2.40       0.38      14.31
C       4.53       8.37       1.28
C       7.72       5.56       1.28
C       6.98       7.94       5.31
C      -0.82      -0.91      10.82
C       7.36       4.66       0.25
C       3.68       7.90       0.25
C      11.07      14.51       7.13
C      12.97      12.83       7.15
C      -4.61      13.75       8.10
C      14.21      -2.80       8.10
C      -1.67      -1.88      10.24
C      11.44      13.02       7.36
C      -3.22      -3.65       9.00
C      -1.37       5.11      13.80
C       5.21      -0.68      13.80
C      -4.10      -4.64       9.80
C      11.11      12.66       8.83
C      -2.42      -2.74       9.80
C      10.75      12.24       6.35
C      10.34      11.76       5.31
C      -1.60       7.45      14.80
C       7.57      -0.61      14.80
C      -1.78       8.66      14.92
C       8.79      -0.64      14.92
C      -1.95       9.98      15.07
C      10.12      -0.64      15.07
C       7.12       0.73       0.02
C      -0.19       7.15       0.02
C       7.07       2.06       0.18
C       1.14       7.27       0.18
C       3.75       2.60      12.98
C       2.08       4.07      12.98
C       7.12       3.28       0.29
C       2.35       7.48       0.30
C       6.59       7.51       6.58
C       6.22       7.09       7.68
C       5.78       6.59       8.84
C       5.32       6.07       9.86
C       4.76       5.43      10.90
C       4.18       4.78      11.77
C       8.79      11.65       3.30
C      10.42      10.21       3.30
C       6.17      -0.51      14.82
C      -1.33       6.08      14.82
C       3.43       3.92      12.58
C       9.89      11.25       4.09
C       8.04       7.47       4.50
C       6.38       8.94       4.50
C      -1.14       0.40      11.23
C       0.52      -1.06      11.23
Br       7.51      12.90       3.85
Br      11.82       9.10       3.86
N      10.92       7.57       0.40
N       6.11      11.80       0.40
N      -1.01       3.91      14.29
N       3.98      -0.49      14.29
N       2.67       2.03      13.53
N       1.64       2.93      13.53
N       8.69      10.94       2.16
N       9.73      10.02       2.16
N       8.06       8.13       3.33
N       7.02       9.04       3.33
N      -0.09       0.97      11.85
N       0.95       0.05      11.85
N       1.10      -1.08      14.62
N      -1.24       0.97      14.62
N       5.66       8.87       0.74
N       8.07       6.74       0.74
