162

Zn      25.55       9.68       6.98
Zn      10.48       9.61       6.93
Zn      27.28      10.60       9.52
Zn      27.20      12.42       6.84
Zn      10.73       0.93       0.76
Zn      18.12       5.23      13.18
Zn       7.49       0.82       0.68
Zn      18.15      14.20       0.65
H      14.44       3.02       4.90
H      12.64      16.25       2.66
H      10.66      13.95       2.40
H      11.56       8.97      12.32
H      16.53       8.01       9.64
H       6.81       3.86       3.51
H      12.16       3.94       3.71
H      20.67      10.56       5.43
H      11.92       5.00       2.30
H      12.04       5.95       5.24
H      11.80       7.01       3.83
H      22.69      16.64       5.22
H      24.51      14.57       4.71
H      23.61      15.84       1.08
H      22.48       5.62       4.28
H      21.23       5.99       5.35
H      18.65       7.12      10.27
H      19.28       8.64      10.14
H      16.32      11.29       4.68
H      16.94      12.41       3.48
H      27.86      14.88       4.20
H      10.86      15.74       4.72
H      24.82       8.82      12.53
H      15.75       5.17       9.49
H      16.94       5.93       8.63
H      15.58       9.23       7.93
H      13.97       9.16       7.46
H      19.37       7.39       5.26
H      19.55       8.62       6.38
H      20.21      12.05       1.72
H      20.80      10.67       2.67
H      23.09       7.72      13.95
H      20.58       6.08       9.50
H      27.43      13.69      12.26
H       5.42       7.40       3.11
H      27.27      18.96       9.55
H      27.53      16.93       8.00
C      11.49      11.98       5.48
C      22.60      11.84       3.99
C      23.53      16.52       1.93
C      24.77       9.19       9.82
C      15.00       1.83       1.77
C      14.93       2.73       2.83
C      14.47       2.31       4.07
C      23.02      16.98       4.24
C      23.07      16.08       3.18
C      22.55       8.04      10.16
C      23.74       8.55      10.69
C      21.34       9.86       4.92
C      23.91       8.42      12.08
C      22.94       7.81      12.87
C      21.75       7.28      12.32
C       8.81       7.53       5.70
C      21.59       7.42      10.94
C      20.63       7.14       9.77
C      21.73       7.89       8.90
C      26.84      16.07       9.94
C      27.11      14.78      10.43
C      27.25      14.66      11.81
C      21.08       8.49       5.01
C      27.16      15.78      12.65
C      26.92      17.09      12.18
C      26.75      17.16      10.79
C      26.53      18.15       9.66
C      27.22      13.57       9.56
C      26.67      16.90       8.69
C      12.35      13.64       3.77
C      12.59      12.59       4.68
C      13.90      12.14       4.73
C      14.98      12.66       3.95
C      21.95       7.58       4.36
C      14.70      13.74       3.05
C      13.38      14.18       3.02
C      12.47      15.21       2.37
C      11.26      14.52       3.13
C      13.76       7.94       9.97
C      11.54       9.12       9.61
C      12.59       8.52      10.47
C      12.45       8.54      11.86
C      13.44       8.01      12.69
C      14.64       7.44      12.21
C      21.68      12.46       3.07
C      14.77       7.46      10.81
C      15.76       7.22       9.66
C      14.54       7.65       8.70
C      10.02       5.79       4.36
C       8.83       6.27       4.91
C       7.69       5.50       4.58
C      24.64      12.05       5.47
C       7.73       4.40       3.73
C       8.94       3.97       3.16
C      10.09       4.69       3.52
C      21.76      13.87       2.81
C      11.58       4.79       3.33
C      11.51       6.05       4.29
C      26.87      18.30      13.05
C       8.99       2.82       2.23
C      20.73       6.61      13.17
C      15.72      14.37       2.20
C      15.67       6.83      13.09
C      23.02       8.08       3.61
C      20.74      14.54       1.98
C      23.24       9.44       3.55
C      22.80      14.63       3.42
C      22.43      10.38       4.19
C      23.70      14.00       4.27
C      23.60      12.62       4.56
N      21.68       6.22       4.47
N      19.29       7.70       9.73
N      16.22      12.14       4.14
N      10.39      15.39       3.88
N      16.42       5.95       9.51
N      14.80       8.62       7.70
N      20.03       7.95       5.79
N      20.74      11.67       2.50
O      27.21      10.60       7.57
O      15.38      15.45       1.62
O      16.75       6.47      12.51
O      10.55      12.78       5.83
O      19.98      13.80       1.24
O      15.39       6.69      14.32
O      20.61      15.81       2.04
O      20.88       6.68      14.44
O      16.88      13.80       2.10
O      26.96      19.42      12.43
O       7.88       2.23       1.98
O       7.69       8.09       5.92
O      24.57       9.09       8.57
O       9.96       7.95       6.07
O      27.39      12.46      10.16
O      11.76       9.13       8.35
O      25.71      12.74       5.62
O      10.52       9.60      10.20
O      24.40      10.93       6.03
O      27.14      13.76       8.30
O      11.56      10.73       5.73
O      25.74       9.78      10.40
O       9.16       0.03       0.00
O      26.77      18.12      14.30
O      10.13       2.52       1.75
O      19.80       6.02      12.53
F      15.31       4.02       2.64
F      13.20       8.09      14.02
F      14.00       6.49       8.06
F       6.48       5.81       5.11
F      15.49       2.26       0.58
F      22.28       7.16       7.88
F      21.30       9.09       8.35
F      27.34      15.55      13.97
F      25.26      18.73       9.62
F      25.53      16.65       7.93
F      14.26      11.14       5.59
F      12.39      15.17       0.97
F      24.31       9.89       2.81
