260

Tm       8.04       1.26       3.95
Tm      -3.95      13.39      15.16
Tm       6.55       6.49       3.90
Tm      -2.46       8.16      15.21
Tm       4.68      10.03       5.10
Tm      -0.58       4.62      14.02
Tm       3.17      15.19       5.14
Tm       0.93      -0.54      13.97
H      -0.28       1.65       1.66
H       4.37      12.99      17.46
H       6.83       3.72      17.78
H      -2.74      10.93       1.34
H      -2.31       3.15      17.56
H       6.41      11.50       1.56
H      -2.63       4.85      17.96
H       6.72       9.80       1.15
H       7.41       6.63       0.54
H      -3.31       8.02      18.57
H       4.36       1.15       4.20
H      -0.27      13.49      14.92
H       1.89       1.48       3.88
H       2.21      13.17      15.23
H       0.62       6.04       0.54
H       3.48       8.60      18.58
H      -0.18       6.37       2.12
H       4.27       8.28      17.00
H       0.39       7.72       1.09
H       3.70       6.92      18.03
H      -3.99      15.29       5.02
H       8.08      -0.64      14.10
H      -1.51      14.95       5.30
H       5.61      -0.31      13.82
H       8.64       2.56       8.05
H      -4.55      12.09      11.06
H      -1.68       3.22      10.44
H       5.77      11.43       8.67
H       9.22      -0.92      11.57
H      -5.13      15.57       7.54
H       3.49      16.32       9.23
H       0.61      -1.67       9.88
H       4.85       4.89       0.70
H      -0.76       9.75      18.42
H       2.13       0.86      17.70
H       1.96      13.78       1.41
H       2.38      -3.20      19.08
H       1.72      17.84       0.04
H       5.15       0.82       2.01
H      -1.06      13.83      17.10
H      -1.21       6.85       5.79
H       5.30       7.79      13.33
H       1.05       7.93       5.86
H       3.04       6.71      13.26
H       2.79       4.47       4.01
H       1.31      10.18      15.11
H       0.51       3.35       4.01
H       3.58      11.30      15.10
H      -2.48      12.38       4.35
H       6.57       2.27      14.77
H      -0.15      13.36       4.40
H       4.24       1.29      14.72
H       1.50       9.45       3.71
H       2.60       5.20      15.40
H      -0.82       8.48       3.64
H       4.91       6.16      15.48
H       3.04      10.39       2.01
H       1.05       4.25      17.10
H       2.75       3.71      18.87
H       1.34      10.93       0.24
H       6.12       9.39       9.24
H      -2.03       5.26       9.87
H       7.78       5.78       7.62
H      -3.69       8.86      11.49
H       2.83       9.24       6.97
H       1.26       5.40      12.15
H       3.39      10.53       7.69
H       0.70       4.11      11.42
H       2.28      15.10       7.67
H       1.81      -0.45      11.44
H       1.35      14.04       7.01
H       2.75       0.60      12.11
H      -1.08      -0.35      17.76
H       5.17      14.99       1.35
H      -1.65      -2.01      17.50
H       5.74      16.66       1.61
H      -0.69      -1.62      18.96
H       4.78      16.26       0.16
H       6.76      -1.13      17.44
H      -2.67      15.78       1.68
H       7.24       0.54      17.83
H      -3.15      14.11       1.28
H       6.15      -0.35      18.94
H      -2.06      15.00       0.18
C       9.63       2.07       1.21
C      -5.53      12.57      17.90
C       0.46      16.77       4.88
C       3.64      -2.12      14.24
C      -2.96       3.82      18.14
C       7.05      10.83       0.98
C      -1.02      16.98       4.75
C       5.12      -2.33      14.37
C       8.33       6.56       1.14
C      -4.24       8.09      17.98
C       3.66       0.33       4.36
C       0.44      14.31      14.76
C       2.29       0.51       4.19
C       1.81      14.13      14.93
C       1.40      -0.55       4.41
C       2.69      15.20      14.70
C      -0.06       6.72       1.09
C       4.15       7.93      18.03
C      -0.08      -0.35       4.26
C       4.17      15.00      14.86
C      -3.28      16.10       4.82
C       7.38      -1.45      14.29
C      -1.91      15.92       4.98
C       6.01      -1.27      14.13
C       8.42       0.03       7.08
C      -4.33      14.62      12.04
C       8.63       0.45       8.50
C      -4.54      14.20      10.61
C       8.76       1.81       8.84
C      -4.67      12.84      10.28
C      -1.77       2.17      10.15
C       5.86      12.48       8.97
C      -1.58       1.19      11.13
C       5.67      13.46       7.98
C      -1.12       1.57      12.51
C       5.21      13.07       6.61
C       9.08      -0.16      10.80
C      -4.98      14.81       8.31
C       8.76      -0.53       9.50
C      -4.67      15.17       9.62
C       5.82       3.36       2.69
C      -1.73      11.29      16.43
C       5.07       2.90       1.47
C      -0.98      11.75      17.65
C       4.64       3.84       0.51
C      -0.55      10.81      18.60
C       2.44       0.16      18.48
C       1.65      14.49       0.64
C       2.19      -1.21      18.28
C       1.91      15.86       0.84
C       1.55      -1.68      17.00
C       2.54      16.33       2.11
C       4.13       1.11       0.14
C      -0.03      13.54      18.98
C       4.80       1.54       1.27
C      -0.71      13.11      17.84
C      -1.83       4.41       4.81
C       5.92      10.23      14.31
C      -0.47       5.04       4.89
C       4.56       9.60      14.23
C      -0.33       6.33       5.42
C       4.42       8.32      13.70
C       0.93       6.93       5.46
C       3.16       7.72      13.66
C       2.05       6.26       4.94
C       2.05       8.39      14.18
C       3.37       6.95       4.89
C       0.72       7.70      14.22
C       1.90       4.97       4.41
C       2.19       9.68      14.71
C       0.65       4.36       4.40
C       3.44      10.29      14.72
C      -3.14       9.77       4.10
C       7.23       4.88      15.01
C      -1.77      10.37       4.00
C       5.87       4.27      15.11
C      -1.60      11.75       4.20
C       5.69       2.89      14.92
C      -0.31      12.29       4.23
C       4.41       2.35      14.89
C       0.80      11.45       4.08
C       3.29       3.19      15.04
C       2.18      12.02       4.25
C       1.92       2.62      14.87
C       0.62      10.08       3.83
C       3.47       4.56      15.28
C      -0.66       9.55       3.79
C       4.75       5.10      15.32
C       4.75       8.32       2.07
C      -0.66       6.32      17.05
C       3.77       8.65       0.99
C       0.32       6.00      18.13
C       2.94       9.77       1.12
C       1.16       4.88      17.99
C       2.10       4.58      18.97
C       1.99      10.07       0.15
C       6.31       7.94       6.97
C      -2.22       6.70      12.14
C       6.89       7.62       8.31
C      -2.80       7.03      10.80
C       6.71       8.49       9.40
C      -2.61       6.16       9.72
C       7.65       6.45       8.48
C      -3.56       8.20      10.64
C      -1.46      -1.25      18.27
C       5.55      15.89       0.85
C       7.01      -0.44      18.26
C      -2.91      15.09       0.85
N       8.15      -0.95      19.01
N      -4.05      15.60       0.11
N      -1.36       6.74       0.44
N       5.45       7.91      18.68
O       6.42      -0.17       4.59
O      -2.33      14.82      14.52
O       0.87      15.62       5.24
O       3.22      -0.97      13.88
O      -0.51       0.75       3.79
O       4.60      13.89      15.32
O       4.79      16.60       4.62
O      -0.70      -1.95      14.50
O       8.43       0.92       6.18
O      -4.34      13.73      12.94
O       3.09      16.67       6.87
O       1.00      -2.02      12.25
O      -1.04       2.80      12.78
O       5.13      11.84       6.33
O      -0.82       0.63      13.32
O       4.91      14.01       5.80
O       6.25       2.46       3.49
O      -2.15      12.18      15.63
O       5.97       4.60       2.84
O      -1.87      10.04      16.27
O       1.25      -0.78      16.15
O       2.85      15.43       2.96
O      -3.80      14.97      16.84
O       7.90      -0.32       2.27
O       8.94       3.17       4.63
O      -4.85      11.48      14.49
O       7.98       5.17       4.95
O      -3.89       9.47      14.17
O       3.45       8.12       5.40
O       0.65       6.53      13.71
O       4.33       6.34       4.32
O      -0.24       8.30      14.79
O       7.57       8.51       3.99
O      -3.48       6.14      15.13
O       6.71      10.57       4.32
O      -2.62       4.08      14.79
O       2.28      13.23       4.58
O       1.82       1.41      14.53
O       3.17      11.25       4.05
O       0.92       3.40      15.07
O       5.57       7.36       1.91
O      -1.48       7.29      17.20
O       4.71       9.03       3.12
O      -0.62       5.61      15.99
O       6.38       7.06       6.07
O      -2.28       7.59      13.05
O       5.80       9.10       6.82
O      -1.70       5.55      12.30
O       8.62       2.30       1.92
O      -4.52      12.35      17.20
O       2.99      10.21       6.87
O       1.11       4.44      12.25
O       2.28      14.21       7.24
O       1.81       0.43      11.87
O       8.30       6.33       2.37
O      -4.21       8.31      16.75
