82

Zn       6.21      10.69       9.79
Zn       5.94       7.90       9.87
H       1.60       7.75       9.72
H      10.55      10.83       9.94
H       8.49      15.15       8.37
H       3.65       3.43      11.29
H       9.20      16.95       9.65
H       2.95       1.64      10.01
H       7.22       1.16       9.66
H       4.92      17.42      10.00
H       6.11       7.31      14.11
H       6.04      11.28       5.55
H       6.23       7.31      16.60
H       5.91      11.28       3.06
H       6.52      11.61      16.57
H       5.62       6.98       3.09
H       6.36      11.59      14.08
H       5.78       7.00       5.58
H       5.24      11.22      18.49
H       6.91       7.36       1.17
H       4.42      10.88       1.29
H       7.72       7.71      18.37
H       5.01      12.95      11.04
H       7.13       5.63       8.62
H       5.23      15.43      11.21
H       6.92       3.15       8.45
H       8.14      11.45       8.00
H       4.01       7.14      11.67
C       6.01       9.14       7.21
C       6.13       9.45      12.45
C       5.83      10.47      19.00
C       6.31       8.12       0.66
C       4.96      10.12       0.73
C       7.18       8.47      18.93
C       5.67       9.12       1.42
C       6.47       9.47      18.24
C       5.77      13.49      10.47
C       6.38       5.09       9.19
C       5.89      14.88      10.55
C       6.25       3.71       9.11
C       6.88      15.54       9.80
C       5.26       3.05       9.86
C       7.71      14.74       9.00
C       4.43       3.85      10.66
C       7.53      13.36       8.97
C       4.62       5.23      10.70
C       8.31      17.59       9.71
C       3.83       1.00       9.95
C       6.22       0.74       9.71
C       5.93      17.85       9.95
C       8.66       8.89       9.82
C       3.49       9.70       9.84
C       5.10       1.59       9.84
C       7.04      17.00       9.83
C      10.14       8.76       9.80
C       2.01       9.82       9.86
C       6.20       8.24      14.67
C       5.95      10.34       5.00
C       6.28       8.25      16.05
C       5.86      10.34       3.61
C       6.39       9.46      16.77
C       5.76       9.13       2.89
C       6.41      10.66      16.04
C       5.74       7.93       3.62
C       6.33      10.66      14.65
C       5.81       7.93       5.01
C       6.22       9.45      13.95
C       5.93       9.14       5.71
C       8.40      12.53       8.07
C       3.75       6.06      11.59
N       6.56      12.74       9.69
N       5.58       5.85       9.97
O       6.12      10.28       7.78
O       6.03       8.31      11.88
O       5.97       8.02       7.80
O       6.17      10.57      11.86
O       8.17      10.07       9.86
O       3.98       8.52       9.80
O       7.99       7.80       9.81
O       4.15      10.78       9.85
O       9.33      13.02       7.45
O       2.81       5.56      12.21
