88

Al       6.38      10.63      10.75
Al       3.02      10.63      10.77
Al       3.33      20.46      20.85
Al       6.69      20.46      20.84
H       0.29       5.72       2.96
H       0.79       7.36       4.55
H       3.18       5.34       6.35
H       2.95       6.61       5.16
H       2.68       5.03       3.47
H       1.38       4.37       7.53
H       6.08       3.34       5.62
H       5.69       5.08       3.98
H       0.99       2.71       5.97
H       4.23       8.38       5.08
H       5.51       8.33       3.84
H       5.79       9.40       6.71
H       0.41       9.33       5.55
H       5.83      10.86       3.98
H       6.11      11.62       5.56
H       4.51      10.96       5.17
H       4.70       8.88      10.67
H       1.34      12.36      11.05
H       4.65       2.53      21.06
H       1.66      18.72      20.62
C       4.68      12.18       8.91
C       4.70      12.30      12.51
C       1.34       9.03      12.59
C       1.35       8.94       9.04
C       6.93       6.52       5.00
C       2.50       5.68       5.56
C       2.37       4.64       4.44
C       0.66       2.29       2.44
C       1.11       6.02       6.18
C       6.75       5.38       3.97
C       0.91       4.15       4.34
C       0.43       3.61       5.71
C       0.63       4.68       6.80
C       0.75       3.13       3.31
C       1.25       7.04       7.19
C       1.34       7.92       8.03
C       1.30       3.39      17.97
C       1.31       4.28      17.13
C       1.31       5.26      16.22
C       1.32       6.18      15.39
C       1.32       7.16      14.48
C       1.33       8.05      13.64
C       4.66      13.06       7.77
C       4.60      13.81       6.80
C       4.54      14.61       5.72
C       4.48      15.35       4.74
C       4.42      16.15       3.66
C       4.37      16.88       2.68
C       4.72      13.29      13.56
C       4.77      14.16      14.43
C       4.83      15.11      15.37
C       4.89      15.99      16.23
C       4.94      16.94      17.18
C       4.99      17.80      18.05
C       5.01      18.79      19.10
C       4.35      17.74       1.52
C       0.63       1.30       1.40
C       1.30       2.40      19.02
C       5.32       8.30       4.93
C       6.02       9.45       5.64
C       5.60      10.80       5.05
Br       3.58       3.10       4.70
Br       5.72       4.86       7.93
O       3.56      11.92      12.11
O       5.83      11.85       9.35
O       6.91       9.36       9.43
O       5.84      11.92      12.08
O       6.91       9.40      12.15
O       3.55      11.84       9.37
O       4.70       9.84      10.78
O       2.49       9.42      12.18
O       2.49       9.33       9.46
O       1.35      11.43      10.76
O       5.49      18.06       1.05
O       3.87      19.17      19.53
O       2.44       2.02      19.44
O       3.20      18.07       1.08
O       1.77       0.91       0.97
O       6.15      19.18      19.50
O       4.65       1.59      20.83
O       6.19       0.91       0.99
O       6.86       2.03      19.45
O       1.66      19.66      20.85
O       5.66       7.00       5.44
