52

Al      -3.07       4.62       6.21
Al       0.25       4.63       6.20
H      -1.37       6.26       6.74
H       1.90       3.01       5.56
H       0.12       7.62       4.28
H       3.32       2.01       4.49
H       0.66       1.47       7.37
H       1.35      -0.06       7.46
H      -2.92       7.42       7.73
H      -2.43       8.88       8.41
H      -1.52       7.92       2.57
H      -1.76       9.43       1.87
H       1.49       2.10       3.01
H       0.48       0.77       2.83
C       1.96       7.02       6.02
C       1.88       4.53       8.62
C      -1.47       2.22       6.29
C      -1.39       4.72       3.79
C      -3.72       4.55      10.97
C       4.19       4.73       1.44
C       1.90       4.34      10.08
C      -1.43       4.94       2.34
C       4.54       5.05       0.11
C      -0.79       5.51       0.03
C       2.04       8.50       6.02
C       1.12       9.29       5.25
C      -3.59       9.09       6.77
C       0.17       8.71       4.37
C      -0.68       9.48       3.60
C      -1.52       0.75       6.13
C      -0.55      -0.04       6.77
C       4.10       0.16       5.33
C       3.23       0.92       4.51
C       2.28       0.34       3.69
S       0.46       3.76      10.86
S       0.02       5.52       1.55
N       0.49       0.48       7.54
N      -2.68       8.39       7.56
N      -1.64       8.92       2.74
N       1.45       1.09       2.85
O       3.07       6.40       5.87
O       0.74       4.39       8.06
O      -0.34       2.81       6.17
O      -2.48       4.44       4.37
O      -2.56       2.83       6.54
O      -0.24       4.84       4.33
O       0.84       6.45       6.20
O      -3.67       4.81       8.05
O      -1.41       5.29       6.73
O       1.91       3.98       5.68
F      -2.50       5.02      10.65
F       2.98       4.26       1.78
