132

Cu       1.87       4.34       4.61
Cu       4.14       4.41       2.39
Cu       4.13       2.11       4.57
Cu      14.14      12.92       4.63
Cu      12.67      13.53       1.84
Cu      11.89      14.90       4.69
Cu      14.08       3.85      13.18
Cu      11.90       3.70      15.24
Cu      12.66       0.98      13.67
Cu       0.03      12.87      13.70
Cu       2.84      12.25      15.21
Cu       2.80      14.48      13.20
H      -0.02       6.66       3.57
H       3.06       6.74       0.54
H       3.02       0.14       6.79
H      -0.04       3.19       6.86
H       6.56       3.48       0.58
H       6.53       0.32       3.54
H      16.08      10.68       3.78
H      13.28      10.51      17.86
H      12.62      16.70       7.18
H      15.96      13.95       7.00
H       9.57      14.09      17.89
H       9.53      16.66       3.84
H      15.87       6.20      14.28
H      12.71       6.02      17.22
H      13.28      17.17      11.66
H      15.97       3.16      10.86
H       9.57       2.73      16.97
H       9.56      16.92      15.23
H      16.11      10.77      15.26
H       2.05       9.80      16.87
H       1.99      16.33      10.90
H      16.08      14.55      11.70
H       5.12      13.18      17.19
H       5.05      16.40      14.31
H       8.88      -0.07       2.87
H       8.11      15.81      16.90
H       8.90       2.82       0.19
H       4.00      16.73      17.83
H       2.28       9.09       0.14
H      15.13       9.19      16.86
H      -0.59       8.90       2.83
H      16.31       5.15      17.84
H      -0.64       2.32       9.05
H      15.08      16.28      10.23
H       2.23      -0.36       9.11
H      16.29      17.49       6.27
C       0.86       6.53       2.95
C       1.21       7.15       1.75
C       2.43       6.57       1.40
C       2.40       1.02       6.66
C       1.17       1.34       7.26
C       0.84       2.58       6.70
C       6.39       2.82       1.42
C       7.02       1.62       1.76
C       6.38       1.21       2.93
C      15.52      11.06       2.93
C      15.67      10.75       1.57
C      14.69      11.55       0.94
C      13.30      15.87       7.01
C      14.61      15.69       7.48
C      15.01      14.47       6.91
C      10.57      15.44       0.98
C       9.69      16.33       1.61
C       9.96      16.16       2.98
C      14.96       6.04      14.84
C      14.62       6.48      16.13
C      13.34       5.95      16.34
C      14.66       0.25      11.61
C      15.61       0.93      10.82
C      15.44       2.28      11.20
C       9.99       1.91      16.41
C       9.71       0.54      16.48
C      10.58      -0.03      15.53
C      -0.80      10.69      15.53
C      -0.16       9.83      16.43
C       1.19      10.19      16.34
C       1.14      15.75      11.24
C      -0.21      15.83      10.87
C      -0.84      14.85      11.65
C       5.00      13.82      16.33
C       5.44      15.14      16.13
C       4.96      15.47      14.86
C       8.03       0.86       0.96
C       8.96      -0.05       1.78
C       8.69      17.23       1.05
C       7.40      16.38      17.51
C       8.98       1.74       0.13
C       8.71      -0.07      17.34
C       5.08      16.78      17.91
C       5.93      16.07      17.16
C       0.39       8.10       0.93
C       1.19       9.09       0.08
C      -0.69       8.79      17.30
C      15.75       8.53      17.47
C      -0.57       8.97       1.75
C      16.62       9.80       1.02
C      16.30       6.24      17.90
C      15.53       7.04      17.14
C       0.35       0.47       8.15
C      -0.63       1.23       9.06
C      16.57       0.45       9.84
C      15.70      16.93       9.61
C       1.15      -0.42       9.10
C      -0.74      16.75       9.88
C      16.26      17.49       7.36
C      15.50      16.68       8.10
N       2.79       5.66       2.34
N       1.82       5.64       3.30
N       1.80       2.97       5.84
N       2.77       2.00       5.81
N       5.43       2.11       3.28
N       5.44       3.11       2.34
N      14.02      12.27       1.87
N      14.54      11.96       3.11
N      14.01      13.97       6.14
N      12.95      14.85       6.20
N      10.93      15.24       3.15
N      11.32      14.79       1.91
N      12.95       5.23      15.27
N      13.96       5.29      14.33
N      14.48       2.38      12.13
N      13.99       1.13      12.39
N      11.33       0.94      14.95
N      10.95       2.15      15.50
N       1.35      11.20      15.45
N       0.11      11.51      14.95
N       0.08      14.23      12.44
N       1.31      14.79      12.18
N       4.27      14.43      14.34
N       4.29      13.40      15.25
