196

Co       3.87      14.40      14.40
Co       3.87       4.15       4.15
Co       3.87       5.13      13.42
Co       3.87      13.42       5.12
H       7.22      15.72      14.16
H       7.22       2.83       4.38
H       7.22       4.89      12.10
H       7.22      13.65       6.44
H       0.52      12.10       4.89
H       0.52       6.44      13.65
H       0.52       4.38       2.83
H       0.52      14.17      15.72
H       2.38       0.33      13.74
H       2.38      18.22       4.81
H       2.38       4.47       8.95
H       2.38      14.08       9.60
H       5.35       8.95       4.47
H       5.35       9.60      14.08
H       5.35       4.81      18.22
H       5.35      13.74       0.33
H       5.38      17.34      13.76
H       5.38       1.21       4.79
H       5.38       4.49      10.48
H       5.38      14.06       8.06
H       2.36      10.48       4.48
H       2.36       8.06      14.06
H       2.36       4.79       1.21
H       2.36      13.76      17.33
H       0.54       1.94      13.19
H       0.54      16.61       5.35
H       0.54       3.92       7.34
H       0.54      14.62      11.21
H       7.20       7.34       3.92
H       7.20      11.21      14.62
H       7.20       5.35      16.61
H       7.20      13.19       1.94
H       4.85       0.35      11.42
H       4.85      18.19       7.13
H       4.85       2.14       8.92
H       4.85      16.40       9.62
H       2.88       8.92       2.14
H       2.88       9.62      16.40
H       2.88       7.13      18.19
H       2.88      11.42       0.35
H       6.68       2.21      15.44
H       6.68      16.34       3.11
H       6.68       6.16       7.07
H       6.68      12.38      11.48
H       1.05       7.07       6.16
H       1.05      11.48      12.38
H       1.05       3.11      16.34
H       1.05      15.44       2.20
H       5.22       3.15      15.81
H       5.22      15.40       2.73
H       5.22       6.54       6.12
H       5.22      12.00      12.42
H       2.52       6.12       6.54
H       2.52      12.42      12.00
H       2.52       2.73      15.39
H       2.52      15.81       3.15
H       6.52       3.91      14.90
H       6.52      14.64       3.65
H       6.52       5.62       5.36
H       6.52      12.92      13.18
H       1.21       5.37       5.62
H       1.21      13.18      12.92
H       1.22       3.65      14.64
H       1.22      14.90       3.91
H       3.19       2.59      11.42
H       3.19      15.95       7.13
H       3.19       2.14       6.68
H       3.19      16.40      11.86
H       4.55       6.68       2.14
H       4.55      11.86      16.40
H       4.55       7.13      15.95
H       4.55      11.42       2.59
C       2.14      16.21      14.23
C       2.14       2.33       4.32
C       2.14       4.95      11.60
C       2.14      13.59       6.94
C       5.60      11.60       4.95
C       5.60       6.94      13.59
C       5.60       4.32       2.33
C       5.60      14.23      16.21
C       1.05      17.20      13.98
C       1.05       1.35       4.56
C       1.05       4.71      10.62
C       1.05      13.83       7.93
C       6.69      10.62       4.71
C       6.69       7.93      13.83
C       6.69       4.56       1.35
C       6.69      13.98      17.20
C       7.45      16.76      13.96
C       7.45       1.78       4.58
C       7.45       4.69      11.06
C       7.45      13.85       7.49
C       0.29      11.06       4.69
C       0.29       7.49      13.85
C       0.29       4.58       1.78
C       0.29      13.96      16.76
C       1.34       0.00      13.73
C       1.34      18.54       4.81
C       1.34       4.46       9.27
C       1.34      14.08       9.27
C       6.40       9.27       4.46
C       6.40       9.27      14.08
C       6.40       4.81      18.54
C       6.40      13.73       0.00
C       6.42      17.66      13.72
C       6.42       0.89       4.83
C       6.42       4.45      10.16
C       6.42      14.10       8.38
C       1.32      10.16       4.44
C       1.32       8.39      14.10
C       1.32       4.83       0.89
C       1.32      13.72      17.66
C       0.32       0.90      13.44
C       0.32      17.65       5.10
C       0.32       4.17       8.37
C       0.32      14.38      10.17
C       7.42       8.37       4.17
C       7.42      10.17      14.38
C       7.42       5.10      17.65
C       7.42      13.44       0.90
C       6.73       0.45      13.45
C       6.73      18.10       5.10
C       6.73       4.17       8.83
C       6.73      14.37       9.72
C       1.01       8.83       4.17
C       1.01       9.72      14.37
C       1.01       5.10      18.10
C       1.01      13.45       0.45
C       4.80       1.21      12.07
C       4.80      17.33       6.47
C       4.79       2.80       8.06
C       4.79      15.75      10.48
C       2.94       8.06       2.80
C       2.94      10.48      15.75
C       2.94       6.47      17.33
C       2.94      12.07       1.21
C       5.36       2.51      13.79
C       5.36      16.03       4.75
C       5.36       4.52       6.76
C       5.36      14.02      11.78
C       2.38       6.76       4.52
C       2.38      11.79      14.02
C       2.38       4.75      16.03
C       2.38      13.79       2.51
C       5.99       2.96      15.06
C       5.99      15.58       3.49
C       5.99       5.78       6.31
C       5.99      12.76      12.23
C       1.75       6.31       5.78
C       1.75      12.23      12.76
C       1.75       3.49      15.58
C       1.75      15.06       2.96
C       3.98       2.31      12.10
C       3.98      16.23       6.45
C       3.98       2.83       6.96
C       3.98      15.72      11.58
C       3.75       6.96       2.82
C       3.75      11.59      15.72
C       3.75       6.45      16.23
C       3.75      12.10       2.31
N       5.67       1.35      13.14
N       5.67      17.19       5.41
N       5.67       3.87       7.92
N       5.67      14.68      10.63
N       2.07       7.92       3.87
N       2.07      10.63      14.68
N       2.07       5.41      17.19
N       2.07      13.14       1.35
N       4.34       3.12      13.16
N       4.34      15.43       5.38
N       4.34       3.89       6.15
N       4.34      14.65      12.39
N       3.40       6.15       3.89
N       3.40      12.39      14.65
N       3.40       5.38      15.43
N       3.40      13.16       3.12
O       3.33      16.58      14.48
O       3.33       1.96       4.07
O       3.33       5.20      11.24
O       3.33      13.34       7.31
O       4.41      11.24       5.20
O       4.41       7.31      13.34
O       4.41       4.07       1.96
O       4.41      14.48      16.58
O       1.86      14.96      14.12
O       1.86       3.58       4.42
O       1.86       4.85      12.86
O       1.86      13.69       5.69
O       5.88      12.86       4.85
O       5.88       5.69      13.69
O       5.88       4.42       3.58
O       5.88      14.13      14.96
