72

Zn       6.89       2.67       6.01
Zn      -3.97       5.45       5.88
H       0.43       2.60       4.33
H       5.23       2.44       9.88
H       4.17       0.95      10.64
H       2.72      -0.76      11.61
H      -1.73       5.69       3.31
H      -2.53       0.38       7.46
H       2.29       7.90       8.96
H       7.44      -1.74       8.52
H       4.74       0.91       5.38
H       2.28       1.83       6.37
H       2.88       0.24       4.86
H       0.55      -0.56       4.51
H       0.79       3.36       8.23
H       2.45       5.61       7.63
H       0.61       6.37       5.59
H       2.10       4.83       3.73
H       0.46       8.79       0.35
C       7.30       3.89       3.39
C       0.99       5.37       5.77
C       1.79       4.51       4.73
C       2.80       4.08       5.87
C      -4.28       5.21      12.24
C      -4.56       4.29      10.00
C       7.14       2.84       1.09
C       3.13       0.02      12.24
C       3.95       0.99      11.70
C       4.50       2.02      12.50
C       8.55       4.80       1.38
C       4.27       4.14       5.73
C      -5.49       3.10      11.95
C      -0.62       6.90       0.29
C      -0.81       6.74       1.70
C      -1.60       5.76       2.23
C      -5.23       3.21      10.57
C      -4.13       5.30      10.87
C       7.66       3.82       1.93
C       6.81      -1.19       7.82
C      -2.43       8.99       5.94
C       1.22      -1.05       5.22
C      -4.33       4.29       8.51
C       2.51      -0.62       5.43
C       3.36      -1.29       6.34
C      -0.43       8.78       7.03
C       4.72      -0.89       6.62
C       5.49      -1.63       7.55
C       1.68       8.44       8.23
C       0.38       8.07       8.00
C       5.29       0.26       6.05
C       7.28      -0.03       7.24
C      -1.39       4.13       6.17
C       1.90       2.84       6.19
C       0.91       3.26       5.06
C       0.09       4.14       6.10
C       1.10       3.69       7.23
C       1.98       4.94       6.90
I       5.79       1.35       1.76
I      -4.39       8.21       5.56
I      -0.49       6.53       9.09
I       0.17       8.06       3.03
N       6.52       0.69       6.37
N      -1.70       8.35       6.81
O       7.53       2.85       4.08
O       6.82       4.99       3.81
O       4.91       3.07       5.44
O       4.81       5.29       5.92
O       6.24       3.18       7.92
O      -3.96       5.36       7.95
O      -1.96       3.06       6.59
O      -1.98       5.18       5.75
F      -3.52       6.42      10.40
