110

Cu       6.22       1.23       0.00
Cu       6.22      11.22       0.00
Cu       1.23       6.22      12.19
Cu      11.22       6.22      12.19
Si      12.45       0.00       6.10
Si      12.45      12.45      18.29
H       1.61       2.16       4.81
H       3.33       2.15       3.02
H      10.83      10.29       4.81
H       9.11      10.30       3.02
H       2.16      10.83      17.01
H       2.15       9.11      15.22
H      10.29       1.61      17.01
H      10.30       3.33      15.22
H       1.61      10.29      19.58
H       3.33      10.30      21.36
H      10.83       2.16      19.58
H       9.11       2.15      21.36
H       2.16       1.61       7.38
H       2.15       3.33       9.17
H      10.29      10.83       7.38
H      10.30       9.11       9.17
H      10.83      10.29      19.58
H       9.11      10.30      21.36
H       1.61       2.16      19.58
H       3.33       2.15      21.36
H      10.29       1.61       7.38
H      10.30       3.33       9.17
H       2.16      10.83       7.38
H       2.15       9.11       9.17
H      10.83       2.16       4.81
H       9.11       2.15       3.02
H       1.61      10.29       4.81
H       3.33      10.30       3.02
H      10.29      10.83      17.01
H      10.30       9.11      15.22
H       2.16       1.61      17.01
H       2.15       3.33      15.22
C       1.99       1.21       4.44
C       2.95       1.21       3.43
C      10.46      11.24       4.44
C       9.49      11.23       3.43
C       1.21      10.46      16.63
C       1.21       9.49      15.63
C      11.24       1.99      16.63
C      11.23       2.95      15.63
C       1.99      11.24      19.95
C       2.95      11.23      20.96
C      10.46       1.21      19.95
C       9.49       1.21      20.96
C       1.21       1.99       7.76
C       1.21       2.95       8.76
C      11.24      10.46       7.76
C      11.23       9.49       8.76
C      10.46      11.24      19.95
C       9.49      11.23      20.96
C       1.99       1.21      19.95
C       2.95       1.21      20.96
C      11.24       1.99       7.76
C      11.23       2.95       8.76
C       1.21      10.46       7.76
C       1.21       9.49       8.76
C      10.46       1.21       4.44
C       9.49       1.21       3.43
C       1.99      11.24       4.44
C       2.95      11.23       3.43
C      11.24      10.46      16.63
C      11.23       9.49      15.63
C       1.21       1.99      16.63
C       1.21       2.95      15.63
C       1.49       0.00       4.95
C       3.43      12.45       2.92
C       4.45       0.00       1.82
C      10.96       0.00       4.95
C       9.01      12.45       2.92
C       8.00       0.00       1.82
C      12.45      10.96      17.15
C      -0.00       9.01      15.11
C       0.00       8.00      14.01
C      12.45       1.49      17.15
C      -0.00       3.43      15.11
C       0.00       4.45      14.01
C       1.49       0.00      19.43
C       3.43      12.45      21.47
C       4.45       0.00      22.57
C      10.96      -0.00      19.43
C       9.01      12.45      21.47
C       8.00       0.00      22.57
C      12.45       1.49       7.24
C      12.45       3.43       9.28
C       0.00       4.45      10.37
C      12.45      10.96       7.24
C      12.45       9.01       9.28
C       0.00       8.00      10.37
O       4.84       1.14       1.40
O       7.60      11.31       1.40
O       1.14       7.60      13.59
O      11.31       4.84      13.59
O       4.84      11.31      22.99
O       7.60       1.14      22.99
O       1.14       4.84      10.80
O      11.31       7.60      10.80
O       7.60      11.31      22.99
O       4.84       1.14      22.99
O      11.31       4.84      10.80
O       1.14       7.60      10.80
O       7.60       1.14       1.40
O       4.84      11.31       1.40
O      11.31       7.60      13.59
O       1.14       4.84      13.59
