67

Zn       8.01       8.77       7.13
Zn      10.48       8.72       9.16
Zn       8.66      11.22       9.18
Zn      10.37      10.71       6.52
H      13.85      15.67      14.09
H       9.58       8.57      13.51
H       5.24       3.93       1.80
H      15.00      16.84      15.90
H       9.99      10.74       2.33
H       7.36       7.50       3.26
H      12.41      13.86      13.29
H       6.43       5.90       2.62
H       9.92       8.93      15.96
H       3.93       9.46       7.30
H      14.73       9.51       6.53
H       4.30      10.51      10.18
H       8.90      15.41       8.90
H       9.03       4.46       9.61
H       9.32      15.06       5.85
H      11.16      12.46      12.68
C      12.88       9.64       7.69
C       6.26       5.79       1.55
C       5.60       4.68       1.10
C       5.98      10.13       8.80
C      10.84      10.87      15.71
C      11.26      11.88      14.78
C      10.22       9.69      15.24
C      10.01       9.49      13.89
C      10.94      11.69      13.42
C       4.55      10.15       9.19
C       3.61       9.78       8.30
C       9.31       9.96       1.98
C      14.35       9.60       7.55
C      15.27       9.77       8.53
C       9.17      14.80       6.90
C       8.97       6.29       8.40
C       8.98      15.73       7.86
C       8.84       4.83       8.60
C       8.68       3.91       7.63
C       9.30      13.37       7.26
C      10.06      10.33      11.53
C       8.88       9.35       4.38
C       7.83       8.11       2.50
C       8.67       9.13       2.92
C      10.34      10.52      12.98
C       9.06       9.79       0.63
C       7.59       7.87       1.12
C       8.20       8.76       0.18
C       6.78       6.76       0.65
C      12.02      13.01      15.27
C      12.59      13.96      14.36
C      13.39      14.98      14.80
O       9.40       9.85       7.98
O      10.17       9.15      11.07
O       9.85      10.10       4.72
O       9.71      11.36      10.85
O       8.07       8.76       5.17
O       8.15       6.86       7.62
O       9.93      12.63       6.43
O      12.36       9.06       8.70
O       6.78      10.75       9.59
O      12.28      10.26       6.75
O       6.29       9.52       7.73
O       9.91       6.84       9.07
O       8.79      13.00       8.38
F      14.88      10.00       9.81
F       8.56       4.29       6.33
