52

Al       3.89       5.61       8.37
Al       0.57       5.65       8.38
H      -1.08       4.23       7.27
H       2.28       7.14       9.25
H       0.94       5.94      12.38
H       1.04       5.83      14.88
H      -3.09       4.56      14.96
H       4.27       6.55       1.77
H       0.06       5.66       1.86
H       0.15       5.52       4.35
H       4.10       1.32       7.56
H       3.34       4.78      11.42
H      -2.19       6.34       5.32
C       2.17       3.23       8.43
C       2.27       5.82       5.94
C      -1.05       8.03       8.37
C      -1.14       5.43      10.79
C      -1.12       5.34      12.26
C       0.06       5.65      12.96
C       0.13       5.59      14.34
C      -1.02       5.18      15.05
C      -2.21       4.87      14.39
C      -2.28       4.95      12.99
C       3.38       6.32       2.35
C       2.17       6.11       1.68
C       0.99       5.81       2.40
C       1.05       5.73       3.77
C       2.25       5.94       4.48
C       3.44       6.24       3.74
C      -2.08      10.34       8.93
C       3.18       0.94       7.99
C      -1.09       9.49       8.42
C       2.18       1.76       8.46
C       2.82      -0.42       8.14
C      -1.74      11.70       8.75
S       0.26      10.36       7.76
S       0.80       0.91       9.10
N      -1.09       5.06      16.46
N       2.24       6.23       0.27
Cl      -3.50       9.87       9.74
O       3.27       3.81       8.16
O       1.19       5.54       6.56
O       0.08       7.49       8.11
O      -2.27       5.20      10.19
O      -2.14       7.40       8.60
O      -0.07       5.76      10.18
O       1.05       3.81       8.68
O       3.41       6.00       6.54
O      -1.09       5.07       7.75
O       2.24       6.21       8.98
O       3.20       4.64      12.40
O      -2.02       6.45       4.34
