165

Al       3.98      20.80      12.08
Al       3.74      34.63      20.09
Al       0.23       6.94       4.05
H       1.97      14.88      22.26
H       1.99      18.62      20.13
H       2.03      14.90      17.96
H       2.82      38.25      21.82
H       3.01      12.92      21.91
H       0.69      13.15      18.26
H       0.86      16.06      23.71
H       3.22      20.41      24.11
H       3.20      19.24      21.94
H       3.08      19.32      18.42
H       0.89      17.45      14.40
H       0.92      16.12      16.49
H       2.05      15.00       1.86
H       2.00      18.70       4.05
H       2.01      14.95       6.16
H       1.15      10.57       2.24
H       1.01      13.03       2.19
H       3.35      13.21       5.82
H       3.17      16.21       0.46
H       0.77      20.52       0.06
H       0.78      19.35       2.23
H       0.88      19.34       5.76
H       3.08      17.44       9.77
H       3.11      16.16       7.66
H       1.89      32.54      12.02
H       1.92      28.80       9.90
H       1.89      28.83      14.20
H       2.81      34.39      16.07
H       2.91      33.23      13.89
H       0.58      29.99      15.55
H       0.82      33.18      10.26
H       3.27      31.34       6.36
H       3.18      30.03       8.45
H       3.03      27.01      10.19
H       0.85      24.44      13.82
H       0.82      26.91      13.90
C       1.93      22.83      12.02
C       1.93      19.82      13.88
C       1.94      19.76      10.33
C       1.66      36.69      20.00
C       1.72      33.61      21.86
C       1.67      33.57      18.36
C       2.27       5.86       2.30
C       2.31       8.99       4.07
C       2.26       5.97       5.83
C       2.02      16.83      21.34
C       1.98      15.43      21.32
C       1.95      14.73      20.11
C       1.99      15.45      18.90
C       2.02      16.85      18.90
C       2.02      17.53      20.12
C       2.34      38.85      21.04
C       2.46      12.45      21.09
C       1.87      13.25      20.09
C       1.20      12.60      19.05
C       1.14      11.21      19.00
C       1.69      38.20      19.99
C       1.41      17.01      23.76
C       1.60       3.84       0.85
C       2.24       5.08       1.01
C       2.70      19.46      24.01
C       2.68      18.80      22.78
C       2.03      17.56      22.63
C       2.61      18.87      17.55
C       2.61      19.59      16.36
C       2.01      19.09      15.19
C       1.41      17.83      15.28
C       1.42      17.09      16.46
C       2.03      17.60      17.62
C       1.99      16.94       2.81
C       2.04      15.54       2.81
C       2.08      14.81       4.01
C       2.04      15.51       5.22
C       1.99      16.91       5.26
C       1.98      17.61       4.04
C       1.64      11.16       3.02
C       1.57      12.55       2.99
C       2.16      13.33       4.00
C       2.84      12.67       5.02
C       2.89      11.29       5.05
C       2.30      10.50       4.07
C       2.62      17.14       0.41
C       2.42      31.62      23.33
C       1.77      32.85      23.16
C       1.30      19.58       0.16
C       1.32      18.92       1.39
C       1.98      17.68       1.54
C       1.35      18.88       6.63
C       1.32      19.58       7.83
C       1.92      19.07       9.00
C       2.56      17.82       8.89
C       2.58      17.11       7.70
C       1.96      17.63       6.54
C       1.94      30.75      10.81
C       1.89      31.45      12.03
C       1.84      30.77      13.26
C       1.86      29.37      13.25
C       1.91      28.64      12.05
C       1.94      29.35      10.84
C       2.32      33.42      15.95
C       2.37      32.77      14.72
C       1.77      31.51      14.53
C       1.10      30.94      15.62
C       1.08      31.59      16.85
C       1.69      32.83      17.05
C       1.39      32.75       9.44
C       1.53       5.70       8.27
C       2.20       5.22       7.14
C       2.74      31.74       7.22
C       2.67      31.00       8.40
C       1.99      31.49       9.54
C       2.56      26.47      11.01
C       2.59      25.08      10.99
C       1.99      24.32      12.01
C       1.36      25.02      13.05
C       1.35      26.41      13.09
C       1.95      27.17      12.06
N       0.45      10.60      17.86
N       0.97       3.17       2.00
N       3.17      20.96      16.48
N       3.56      10.66       6.21
N       3.04      30.94      22.17
N       0.71      20.94       7.72
N       0.43      30.89      17.97
N       0.94       7.05       8.27
N       3.19      24.52       9.75
O       2.91      19.49      11.12
O       2.86      22.19      11.45
O       2.86      20.63      13.61
O       0.98      20.54      10.58
O       0.93      19.55      13.14
O       0.94      22.30      12.64
O       2.67      33.41      19.13
O       2.65      36.10      19.48
O       2.66      34.45      21.67
O       0.71      34.37      18.54
O       0.70      33.45      21.14
O       0.70      36.16      20.64
O       3.28       6.68       5.60
O       3.28       5.70       3.04
O       3.27       8.42       3.44
O       1.32       5.73       5.02
O       1.31       8.42       4.58
O       1.32       6.69       2.46
O       0.61      37.18      17.66
O       3.84      11.33      17.16
O       1.27       3.57       3.13
O       0.19       2.23       1.76
O       0.07      21.26      15.85
O       2.58      21.70      17.28
O       3.33       9.46       6.39
O       0.16      11.37       6.92
O       2.71      31.35      21.06
O       3.82      30.00      22.40
O       3.79      21.19       8.34
O       1.27      21.69       6.91
O       0.69      31.32      19.10
O       3.80      29.93      17.72
O       1.30       7.81       7.38
O       0.14       7.33       9.18
O       0.11      23.85       9.84
O       2.63      24.84       8.70
