60

Co      -1.17       0.30       7.48
Co       1.00       0.80       9.33
Co       3.16      -1.06       8.84
Co       3.31       7.11       5.34
Co       1.15       6.61       3.48
Co      -1.01       8.47       3.98
H      -0.61       0.26       6.15
H       1.55       1.97       9.96
H       3.71      -2.19       9.53
H       2.76       7.13       6.67
H       0.59       5.45       2.84
H      -1.57       9.61       3.29
H       3.04      -3.11       5.97
H      -1.29       3.80       7.11
H       0.87      -0.64      12.54
H      -0.89      10.52       6.85
H       3.44       3.59       5.67
H       1.28       8.05       0.28
C       0.65      -1.89       7.84
C       2.81       1.57       7.24
C      -1.51       0.36      10.55
C       1.50       9.29       4.98
C      -0.67       5.83       5.55
C       3.66       7.06       2.27
C      -0.26      -2.77       7.10
C       1.90       2.65       6.84
C      -2.42       0.16      11.69
C       2.41      10.18       5.72
C       0.24       4.74       5.95
C       4.57       7.26       1.13
C       4.87      -2.44       6.86
C       0.54       2.69       7.25
C       2.70      -0.21      11.51
C      -2.72       9.84       5.96
C       1.61       4.70       5.54
C      -0.55       7.63       1.30
C       4.07      -3.36       6.17
C      -0.26       3.75       6.79
C       1.91      -0.34      12.65
C      -1.92      10.77       6.65
C       2.40       3.65       5.99
C       0.24       7.75       0.16
O       0.22      -0.72       8.20
O       2.38       0.69       8.09
O      -1.95       0.08       9.36
O       1.93       8.13       4.63
O      -0.23       6.72       4.72
O       4.09       7.35       3.45
O       1.83      -2.26       8.15
O       3.99       1.49       6.77
O      -0.33       0.81      10.72
O       0.32       9.67       4.68
O      -1.84       5.91       6.03
O       2.48       6.61       2.09
O       4.27      -1.27       7.23
O      -0.06       1.80       8.09
O       2.11      -0.49      10.32
O      -2.12       8.67       5.60
O       2.20       5.61       4.71
O       0.04       7.91       2.50
