206

Zn       9.69      11.96       1.12
Zn       9.69       9.69      33.59
Zn      11.96       9.69       1.12
Zn      11.96      11.96      33.59
Zn      11.96       9.69      16.23
Zn       9.69       9.69      18.48
Zn       9.69      11.96      16.23
Zn      11.96      11.96      18.48
H      12.33       5.56       1.53
H      12.34       3.06       1.53
H       9.32       5.56      33.19
H       9.31       3.06      33.19
H      10.82       1.24      32.56
H      10.83       1.24       2.15
H       9.32      16.09       1.53
H       9.31      18.59       1.53
H      12.33      16.09      33.19
H      12.34      18.59      33.19
H      10.82      20.41       2.15
H      10.83      20.41      32.56
H      12.34       9.31       5.26
H      12.36       9.30       7.72
H       9.31      12.34      12.10
H       9.30      12.36       9.64
H      12.34       9.31      12.10
H      12.36       9.30       9.64
H       9.31      12.34       5.26
H       9.30      12.36       7.72
H      12.34      12.34      29.46
H      12.36      12.36      27.00
H       9.31       9.31      22.62
H       9.30       9.30      25.08
H      12.34      12.34      22.62
H      12.36      12.36      25.08
H       9.31       9.31      29.46
H       9.30       9.30      27.00
H      16.09       9.30       1.51
H      18.59       9.30       1.52
H      16.09      12.35      33.21
H      18.59      12.35      33.20
H      20.41      12.98      34.72
H      20.41       8.67       0.00
H       5.56       9.30      33.21
H       3.06       9.30      33.20
H       5.56      12.35       1.51
H       3.06      12.35       1.52
H       1.24       8.67      34.72
H       1.24      12.98       0.00
H       5.56      12.33      15.83
H       3.06      12.34      15.83
H       5.56       9.32      18.89
H       3.06       9.31      18.89
H       1.24      10.82      19.51
H       1.24      10.83      15.21
H      16.09       9.32      15.83
H      18.59       9.31      15.83
H      16.09      12.33      18.89
H      18.59      12.34      18.89
H      20.41      10.82      15.21
H      20.41      10.83      19.51
H       9.30      16.09      15.85
H       9.30      18.59      15.84
H      12.35      16.09      18.87
H      12.35      18.59      18.88
H      12.98      20.41      17.36
H       8.67      20.41      17.36
H       9.30       5.56      18.87
H       9.30       3.06      18.88
H      12.35       5.56      15.85
H      12.35       3.06      15.84
H       8.67       1.24      17.36
H      12.98       1.24      17.36
C       7.20      10.83      34.72
C      10.83       7.20       0.00
C      10.83      10.83       3.61
C      14.45      10.83      34.72
C      10.83      14.45      34.72
C      10.83      10.83      31.11
C      10.83       7.20      17.36
C       7.20      10.83      17.36
C      10.83      10.83      13.75
C      10.83      14.45      17.36
C      14.45      10.83      17.36
C      10.83      10.83      20.97
C      10.83       5.71       0.00
C      11.67       5.00       0.87
C      11.67       3.61       0.87
C       9.98       5.00      33.85
C       9.99       3.61      33.85
C      10.83       2.89      34.72
C      10.83       1.42      34.72
C      10.82       0.70      33.51
C      10.83       0.70       1.21
C      10.83      15.94       0.00
C       9.98      16.65       0.87
C       9.99      18.04       0.87
C      11.67      16.65      33.85
C      11.67      18.04      33.85
C      10.83      18.76       0.00
C      10.83      20.24       0.00
C      10.82      20.96       1.21
C      10.83      20.96      33.51
C      10.83      10.83       5.10
C      10.83      10.83      12.26
C      11.68       9.97       5.81
C      11.68       9.98       7.20
C       9.97      11.68      11.55
C       9.98      11.68      10.16
C      11.68       9.97      11.55
C      11.68       9.98      10.16
C       9.97      11.68       5.81
C       9.98      11.68       7.20
C      10.83      10.83       7.94
C      10.83      10.83       9.42
C      10.83      10.83      29.62
C      10.83      10.83      22.46
C      11.68      11.68      28.90
C      11.68      11.68      27.52
C       9.97       9.97      23.17
C       9.98       9.98      24.56
C      11.68      11.68      23.17
C      11.68      11.68      24.56
C       9.97       9.97      28.90
C       9.98       9.98      27.52
C      10.83      10.83      26.78
C      10.83      10.83      25.30
C      15.94      10.83      34.72
C      16.65       9.96       0.85
C      18.04       9.96       0.84
C      16.65      11.69      33.87
C      18.04      11.69      33.88
C      18.76      10.83      34.72
C      20.24      10.83      34.72
C      20.96      12.03      34.71
C      20.96       9.62       0.01
C       5.71      10.83       0.00
C       5.00       9.96      33.87
C       3.61       9.96      33.88
C       5.00      11.69       0.85
C       3.61      11.69       0.84
C       2.89      10.83      34.72
C       1.42      10.83      34.72
C       0.70       9.62      34.71
C       0.70      12.03       0.01
C       5.71      10.83      17.36
C       5.00      11.67      16.49
C       3.61      11.67      16.49
C       5.00       9.98      18.23
C       3.61       9.99      18.23
C       2.89      10.83      17.36
C       1.42      10.83      17.36
C       0.70      10.82      18.57
C       0.70      10.83      16.15
C      15.94      10.83      17.36
C      16.65       9.98      16.49
C      18.04       9.99      16.49
C      16.65      11.67      18.23
C      18.04      11.66      18.23
C      18.76      10.83      17.36
C      20.24      10.83      17.36
C      20.96      10.82      16.15
C      20.96      10.83      18.57
C      10.83      15.94      17.36
C       9.96      16.65      16.51
C       9.96      18.04      16.52
C      11.69      16.65      18.21
C      11.69      18.04      18.20
C      10.83      18.76      17.36
C      10.83      20.24      17.36
C      12.03      20.96      17.37
C       9.62      20.96      17.35
C      10.83       5.71      17.36
C       9.96       5.00      18.21
C       9.96       3.61      18.20
C      11.69       5.00      16.51
C      11.69       3.61      16.52
C      10.83       2.89      17.36
C      10.83       1.42      17.36
C       9.62       0.70      17.37
C      12.03       0.70      17.35
O      10.83      10.83      34.72
O       7.78      11.63       0.81
O      10.02       7.78      33.91
O      11.63      10.02       3.03
O       7.78      10.02      33.91
O      10.02      11.63       3.03
O      11.63       7.78       0.81
O      13.87      10.02       0.81
O      11.63      13.87      33.91
O      13.87      11.63      33.91
O      10.02      13.87       0.81
O      10.02      10.02      31.68
O      11.63      11.63      31.68
O      10.83      10.83      17.36
O      11.63       7.78      16.55
O       7.78      10.02      18.17
O      10.02      11.63      14.33
O      10.02       7.78      18.17
O      11.63      10.02      14.33
O       7.78      11.63      16.55
O      10.02      13.87      16.55
O      13.87      11.63      18.17
O      11.63      13.87      18.17
O      13.87      10.02      16.55
O      10.02      10.02      20.39
O      11.63      11.63      20.39
