86

Zn       5.66       6.96       8.76
Zn       5.62       9.78       8.73
H       2.66       6.90       6.72
H       8.72       7.25       6.38
H       4.58       6.28      15.40
H       4.60       6.20       2.10
H       5.19       6.25      12.97
H       5.09       6.25       4.54
H       5.05      10.54      12.87
H       4.77      10.53       4.55
H       4.43      10.59      15.30
H       4.28      10.51       2.09
H       4.20       2.39       7.03
H       7.01       2.29      10.32
H       4.35       4.88       7.09
H       7.03       4.81      10.25
H       3.92      14.39       7.32
H       7.14      14.43      10.21
H       4.01      11.88       7.40
H       7.09      11.92      10.16
H       0.60      11.11      11.24
H       2.22      11.09      10.43
H       2.08      10.73      12.18
H      10.37       8.31      12.33
H       8.81       7.83      11.56
H       8.88       9.29      12.61
C       5.28       8.42       6.15
C       5.57       8.37      11.34
C       3.03       8.26       8.88
C       8.24       8.45       8.62
C       1.58       6.98       6.68
C       9.81       7.21       6.47
C       0.91       6.40       5.62
C      10.52       6.52       5.52
C      10.46       7.78       7.60
C       0.87       7.67       7.69
C       1.53       8.25       8.81
C       9.74       8.43       8.64
C       0.81       8.84       9.83
C      10.41       8.94       9.74
C       4.68       7.21      14.84
C       4.63       7.15       2.64
C       5.03       7.19      13.50
C       4.91       7.18       4.00
C       5.18       8.39      12.79
C       4.96       8.40       4.69
C       4.94       9.61      13.44
C       4.72       9.59       4.00
C       4.60       9.64      14.78
C       4.45       9.58       2.64
C       4.49       8.43      15.52
C       4.43       8.35       1.93
C       4.28       8.46      16.91
C       4.30       8.34       0.52
C       4.84       2.88       7.76
C       6.41       2.83       9.60
C       4.92       4.27       7.79
C       6.42       4.22       9.56
C       5.59       2.13       8.68
C       5.54       0.72       8.70
C       5.55      16.04       8.73
C       4.64      13.88       7.96
C       6.43      13.91       9.58
C       4.68      12.50       8.01
C       6.41      12.52       9.56
C       5.54      14.62       8.76
C       1.59      10.64      11.21
C       9.43       8.68      11.88
N       5.69       4.92       8.67
N       5.55      11.83       8.78
N       1.72       5.76       4.58
N       9.76       5.79       4.50
O       5.39       7.30       6.74
O       5.75       7.23      10.80
O       5.42       9.56       6.70
O       5.68       9.50      10.76
O       3.61       7.14       8.94
O       7.68       7.31       8.65
O       3.57       9.41       8.83
O       7.67       9.58       8.58
O       1.47       9.22      10.97
O       9.71       9.55      10.76
O       2.64       5.02       4.96
O       1.46       6.03       3.40
O       8.75       6.34       4.03
O      10.15       4.65       4.21
