134

Zn       4.71       5.59       7.54
Zn       4.69       8.52       7.62
H       3.04       8.26      11.78
H       0.48       9.07       8.52
H       9.01       8.55       6.27
H       8.96       8.99       8.78
H       9.00       6.89       5.65
H       9.15       7.64       9.90
H       0.47       4.88       7.54
H       0.36       5.43       9.22
H       5.48       4.92       0.93
H       5.74       9.19       0.87
H       3.67       9.63       4.78
H       6.41       5.61      11.79
H       1.67       9.25       3.36
H      10.32      10.31       3.96
H      10.16      11.71       6.02
H       1.32      12.11       7.41
H       1.29       1.78       7.88
H      10.11       2.01       6.47
H      10.18       3.38       4.39
H       1.44       4.57       3.77
H       3.46       4.34       5.16
H       7.37       5.14       4.68
H       3.29      13.35       6.31
H       7.93       2.87       5.44
H       6.56       0.92       4.70
H       4.61       1.29       3.18
H       4.08       3.57       2.39
H       4.52      10.74       2.29
H       5.23      12.95       3.18
H       7.08      13.09       4.85
H       8.23      11.01       5.59
H       7.55       8.82       4.66
H       2.69       6.75       0.35
H       3.11       0.65       7.37
H       0.75       7.90       1.36
H       0.31      10.30       0.84
H       1.08      11.45      14.47
H       3.01      10.27      13.43
H       8.25       7.28       0.35
H       9.97       6.03       1.61
H      10.25       3.58       1.26
H       8.08       2.33      14.79
H       6.35       3.59      13.53
H       6.37      10.54       8.81
H       6.79       3.75       8.10
H       6.56      13.00       9.11
H       7.27       1.32       8.29
H       0.50       8.47       6.19
C       5.09       7.11       5.02
C       5.71       6.22      13.75
C       3.79       7.70      12.34
C       5.67       6.19      12.35
C       4.73       6.95      11.65
C       4.73       6.96      14.45
C       3.95      12.78       6.96
C       3.97       1.30       7.53
C       2.15       7.03       7.69
C       3.82      11.39       6.93
C       3.80       2.66       7.28
C       9.38       5.65       8.08
C       5.67      11.21       8.31
C       6.01       3.01       7.92
C       5.79      12.60       8.46
C       6.26       1.65       8.06
C       4.88      13.42       7.77
C       5.22       0.74       7.83
C       4.73       6.96      10.15
C       7.30       7.14       7.76
C       0.06       7.50       6.44
C       0.11       8.07       8.80
C       5.46       5.87       1.46
C       9.37       7.53       6.45
C       9.42       8.00       8.90
C       0.06       5.66       8.19
C       0.62       7.03       7.79
C       8.83       7.07       7.82
C       2.63      10.91       6.18
C       2.71      10.08       5.05
C       1.58       9.87       4.25
C       0.36      10.46       4.59
C       0.26      11.25       5.74
C       5.61       8.26       1.43
C       1.39      11.48       6.52
C       2.53       3.03       6.61
C       1.33       2.38       6.97
C       0.19       2.51       6.17
C       0.23       3.28       5.01
C       1.41       3.95       4.67
C       2.55       3.83       5.46
C       5.69       4.52       3.47
C       6.77       4.30       4.34
C       7.08       3.01       4.77
C       5.48       5.86       2.86
C       6.31       1.92       4.36
C       5.23       2.13       3.51
C       4.93       3.42       3.06
C       5.98       9.62       3.43
C       5.34      10.80       3.01
C       5.74      12.04       3.52
C       6.77      12.13       4.45
C       7.42      10.96       4.86
C       7.04       9.72       4.34
C       2.63       8.39      14.42
C       5.64       8.30       2.83
C       2.51       7.80       0.12
C       1.42       8.45       0.69
C       1.16       9.79       0.39
C       1.27      10.40      14.71
C       2.36       9.74      14.13
C       6.80       5.49      14.46
C       8.37       6.21       0.18
C       9.34       5.51       0.89
C       9.50       4.14       0.69
C       7.96       3.40      14.95
C       5.47       7.09       3.57
C       6.99       4.11      14.24
C       5.47       7.06       0.73
C       3.74       7.69      13.74
N       4.70      10.61       7.59
N       4.82       3.52       7.51
O       4.62       6.03       5.52
O       5.18       8.20       5.67
O       2.74       5.93       7.88
O       2.68       8.15       7.40
O       5.04       5.87       9.57
O       4.42       8.06       9.60
O       6.70       6.09       7.35
O       6.76       8.25       8.03
F       0.50       6.61       5.41
F       0.68       7.80      10.07
F       9.00       4.77       7.07
F       8.81       5.13       9.25
