96

Zn       7.80      19.81      19.81
Si       3.90      19.81      19.81
H       0.00       8.64       3.37
H       0.00      11.17      16.44
H       0.00      16.44       8.64
H       0.00       3.37      11.17
H       7.80      11.17       3.37
H       7.80       8.64      16.44
H       7.80       3.37       8.64
H       0.00      16.44      11.17
H       5.72       2.26       0.00
H       5.64       4.76      19.81
H       5.72      17.55       0.00
H       5.64      15.05       0.00
H       5.72      -0.00       2.26
H       5.64      19.81       4.76
H       5.72      19.81      17.55
H       5.64      -0.00      15.05
H       2.08      17.55       0.00
H       2.16      15.05       0.00
H       2.08       2.26       0.00
H       2.16       4.76      19.81
H       2.08      -0.00       2.26
H       2.16      19.81       4.76
H       2.08      19.81      17.55
H       2.16      -0.00      15.05
C       7.80       7.02       1.26
C       0.00       8.50       1.24
C       0.00       9.20       2.43
C       0.00      12.79      18.55
C       0.00      11.31      18.58
C       0.00      10.61      17.38
C       0.00      18.55       7.02
C       0.00      18.58       8.50
C       0.00      17.38       9.20
C      -0.00       1.26      12.79
C      -0.00       1.24      11.31
C       7.80       2.43      10.61
C       0.00      12.79       1.26
C       0.00      11.31       1.24
C       0.00      10.61       2.43
C       0.00       7.02      18.55
C       0.00       8.50      18.58
C       0.00       9.20      17.38
C       7.80       1.26       7.02
C       7.80       1.24       8.50
C       7.80       2.43       9.20
C       7.80      18.55      12.79
C       7.80      18.58      11.31
C       0.00      17.38      10.61
C       7.80       4.94      19.81
C       0.00       9.19      19.81
C       0.00      14.87       0.00
C       0.00      10.62       0.00
C       0.00      19.81       4.94
C       0.00      19.81       9.19
C       0.00      -0.00      14.87
C      -0.00      -0.00      10.62
C       6.64       2.85       0.00
C       6.60       4.24      19.81
C       6.64      16.96       0.00
C       6.60      15.57       0.00
C       6.64      19.81       2.85
C       6.60      19.81       4.24
C       6.64      -0.00      16.96
C       6.60      -0.00      15.57
C       1.16      16.96       0.00
C       1.20      15.57       0.00
C       1.16       2.85       0.00
C       1.20       4.24      19.81
C       1.16      19.81       2.85
C       1.20      19.81       4.24
C       1.16      -0.00      16.96
C       1.20      -0.00      15.57
N       7.80       2.16       0.00
N       7.80       6.38      19.81
N       0.00      17.65       0.00
N       0.00      13.43       0.00
N       0.00      19.81       2.16
N       0.00      19.81       6.38
N       0.00      19.81      17.65
N       0.00      -0.00      13.43
O       7.80       6.36       2.30
O       7.80      13.45      17.52
O       7.80      17.52       6.36
O       0.00       2.30      13.45
O       0.00      13.45       2.30
O       7.80       6.36      17.52
O       7.80       2.30       6.36
O       7.80      17.52      13.45
F       2.13       0.00       0.00
F       5.66      19.81      19.81
F       3.90       1.20       1.20
F       3.90      18.61      18.61
F       3.90      18.61       1.20
F       3.90       1.20      18.61
