98

Al       3.89      35.64      12.35
Al       3.89      21.39       4.12
H       0.74      18.89       7.40
H       0.74      16.67       8.52
H       2.98      15.03       5.21
H       2.98      13.49      11.25
H       0.74      11.84       7.94
H       0.74       9.63       9.07
H       1.94      13.52       6.88
H       1.94      14.99       9.58
H       0.74      25.48       4.64
H       0.74      27.56       5.99
H       2.98      25.51       9.07
H       2.98      31.52       7.39
H       0.74      29.47      10.47
H       0.74      31.55      11.82
H       1.94      27.71       9.54
H       1.94      29.32       6.92
H       0.74      19.79       0.31
H       0.74      34.18      22.52
H       2.98      37.87      22.76
H       2.98      33.41      18.40
H       0.74      37.10      18.63
H       0.74      37.23      16.15
H       1.94      37.18      20.62
H       1.94      34.11      20.54
H       3.28      18.20       3.73
H       3.28      10.31      12.73
H       3.28      22.64       7.07
H       3.28       5.87       9.40
H       3.28      23.31       1.55
H       3.28      33.71      14.91
C       1.88      35.54      14.42
C       1.88       8.98      11.40
C       1.88      33.90      11.22
C       1.88      19.54       5.06
C       1.88      23.13       5.24
C       1.88      21.49       2.04
C       1.92      18.23       5.72
C       1.26      18.04       6.95
C       1.27      16.81       7.58
C       1.88      15.69       6.95
C       2.50      15.87       5.71
C       2.58      17.13       5.11
C       1.88      14.37       7.57
C       1.88      14.14       8.90
C       2.50      12.65      10.75
C       1.88      12.82       9.51
C       1.27      11.71       8.88
C       1.26      10.48       9.51
C       1.92      10.28      10.74
C       2.58      11.39      11.35
C       1.92      24.35       6.04
C       1.26      25.52       5.60
C       1.27      26.67       6.35
C       1.88      26.69       7.63
C       2.50      25.52       8.10
C       2.58      24.38       7.30
C       1.88      27.88       8.46
C       1.88      29.15       8.00
C       2.50      31.50       8.36
C       1.88      30.34       8.84
C       1.27      30.35      10.11
C       1.26      31.51      10.87
C       1.92      32.67      10.42
C       2.58      32.65       9.16
C       1.92      21.57       0.58
C       1.26      34.86      24.49
C       1.27      34.93      23.11
C       1.88      36.03      22.46
C       2.50      37.02      23.23
C       2.58      36.91      24.62
C       1.88      36.16      21.01
C       1.88      35.12      20.14
C       2.50      34.26      17.92
C       1.88      35.25      18.69
C       1.27      36.35      18.04
C       1.26      36.42      16.66
C       1.92      35.46      15.88
C       2.58      34.38      16.53
O       2.80      34.79      11.00
O       2.80      34.90      13.76
O       2.80       8.72      12.28
O       0.95      34.06      12.08
O       0.95       8.15      11.11
O       0.95      36.20      13.85
O       2.80      22.13       2.71
O       2.80      19.79       4.18
O       2.80      22.24       5.46
O       0.95      20.83       2.61
O       0.95      22.97       4.39
O       0.95      20.36       5.35
O       3.25      17.23       3.95
O       3.25      11.28      12.52
O       3.25      23.32       7.80
O       3.25       5.20       8.67
O       3.25      23.61       0.60
O       3.25      33.42      15.86
