54

Al       2.65       5.00       8.39
Al       6.03       5.00       8.39
H       4.32       6.34       9.59
H       7.74       3.66       7.20
H       6.49       5.14       4.41
H       6.61       5.25       1.92
H       2.30       5.33       1.74
H       9.76       4.67      15.04
H       5.46       4.75      14.86
H       5.58       4.86      12.37
H       9.80       9.12       8.39
H       2.27       0.88       8.39
H       8.87       5.28       5.30
H       3.19       4.73      11.48
H       6.63       2.02       8.70
H       5.44       7.98       8.09
C       7.70       7.43       8.26
C       7.74       4.91      10.82
C       4.36       2.57       8.52
C       4.33       5.09       5.96
C       4.34       5.18       4.49
C       5.58       5.18       3.82
C       5.65       5.24       2.44
C       4.46       5.28       1.70
C       3.22       5.29       2.34
C       3.14       5.25       3.74
C       8.85       4.71      14.45
C       7.61       4.72      15.08
C       6.41       4.76      14.34
C       6.49       4.82      12.96
C       7.73       4.82      12.29
C       8.92       4.75      13.05
C       4.42       1.10       8.48
C       7.65       8.90       8.30
C       5.67       0.41       8.49
C       6.40       9.59       8.29
C       8.84       9.63       8.39
C       3.23       0.37       8.39
N       4.40       5.32       0.28
N       7.66       4.68      16.50
O       8.82       6.83       8.38
O       6.64       5.07      10.20
O       5.49       3.19       8.66
O       3.17       5.16       6.55
O       3.25       3.17       8.41
O       5.42       4.93       6.58
O       6.57       6.81       8.13
O       8.90       4.84      10.23
O       4.34       5.60       8.95
O       7.73       4.40       7.83
O       8.70       5.28       4.32
O       3.37       4.72      12.47
O       6.86       1.05       8.60
O       5.21       8.95       8.19
