62

Al       3.99      21.55       7.47
Al       3.99      12.93       2.49
H       2.06       8.58       2.45
H       1.09      11.24       7.05
H       2.87      11.25       7.02
H       2.90       9.07       8.27
H       1.13       9.04       8.28
H       2.06      15.07       6.28
H       1.09      17.73       1.67
H       2.87      17.69       1.68
H       2.90       2.63       2.94
H       1.13       2.65       2.96
H       2.06      23.76      13.67
H       1.09      18.45      13.68
H       2.87      18.47      13.70
H       2.90      18.47      11.19
H       1.13      18.48      11.16
C       1.99      21.60       9.51
C       1.99       6.06       6.40
C       1.99      19.76       6.48
C       2.00      11.14       3.48
C       2.00      14.69       3.55
C       2.00      12.97       0.44
C       1.99       9.85       4.22
C       2.00       7.35       5.65
C       1.97       9.79       5.61
C       1.99       7.42       4.25
C       2.01       8.58       6.30
C       2.03       8.62       3.54
C       1.98      10.62       6.88
C       2.01       9.25       7.66
C       1.99      15.97       4.29
C       2.00      18.47       5.74
C       1.97      17.20       3.65
C       1.99      17.21       6.38
C       2.01      18.40       4.35
C       2.03      16.00       5.70
C       1.98      17.89       2.29
C       2.01       2.01       3.09
C       1.99      21.60      13.89
C       2.00      21.60      11.00
C       1.97      20.42      13.14
C       1.99      22.78      11.77
C       2.01      20.43      11.75
C       2.03      22.80      13.16
C       1.98      18.90      13.23
C       2.01      18.91      11.64
O       2.93      20.57       6.21
O       2.93      20.95       8.94
O       2.93       5.89       7.25
O       1.05      19.96       7.31
O       1.05       5.24       6.17
O       1.05      22.21       8.92
O       2.93      13.60       1.03
O       2.93      11.34       2.64
O       2.93      13.86       3.79
O       1.06      12.32       1.01
O       1.06      14.51       2.70
O       1.06      11.96       3.75
F       1.99       6.26       3.53
F       1.99      17.17       7.74
F       1.99       6.74      11.12
