192

Al      11.86       9.89      20.68
Al      15.06      10.01      20.75
Al      13.77       7.31      20.73
Al       5.02       4.20       6.81
Al       8.18       3.81       6.66
Al       7.12       6.61       6.71
H       5.07       8.62       0.66
H      12.06       8.83      14.22
H      15.38       7.74      14.58
H      14.09      10.76      14.31
H      17.35       9.28      15.06
H      12.96       6.46      14.33
H      11.84      11.85      14.66
H      11.51       4.91      12.32
H       5.71       8.58      13.14
H       5.23       1.89      12.90
H       5.22       8.59      15.43
H      12.72       5.23       1.04
H      11.86       5.11      14.63
H       5.29       1.22      15.15
H      12.57       6.29      12.03
H      17.80       9.17      12.77
H      11.71      12.51      12.42
H       3.93       6.31      26.93
H       9.44       5.37      26.73
H       6.41       2.64      25.31
H      12.21       6.91       0.73
H      17.11       9.22       0.77
H      11.00      11.69       1.54
H      12.53      11.13       2.23
H      15.31       9.18      26.82
H      10.17       8.92      26.02
H      15.49      12.91      26.91
H       8.58       6.41       1.11
H      15.50       6.06       1.83
H       8.25       1.41       0.66
H      15.46       7.44      27.07
H       8.90       7.73      26.31
H       8.67       2.08      26.05
H      11.10       4.76      26.63
H       9.87       7.57       0.82
H      15.27       7.80       1.60
H      14.65      12.18       1.50
H      16.19       5.80      12.51
H       9.88       8.89      12.24
H      15.47      12.28      12.22
H       8.77       7.20      14.98
H       4.10       5.01      15.32
H       9.00       1.84      15.15
H      15.55       5.99      14.76
H       5.38       7.15      26.36
H      10.35       9.14      14.52
H      15.57      11.71      14.48
H       8.36       6.93      12.69
H       4.80       4.94      13.08
H       8.93       2.40      12.88
H       5.48       6.05      15.68
H       9.40       5.55      15.06
H       7.43       2.60      15.39
H      11.59       8.64      11.93
H      15.91       7.53      12.31
H       5.01       1.74      25.92
H      13.98      11.35      12.05
H       6.10       6.08      13.43
H       9.02       5.29      12.76
H       7.38       3.20      13.13
H      10.01      11.08      21.48
H       2.97       3.53       7.71
C      13.56      11.30      22.77
C      10.75       8.29      12.53
C      16.45       6.79      12.92
C      14.46      12.14      12.64
C       4.89       6.77      10.16
C       9.84       6.30       9.67
C       7.02       1.84       9.89
C      11.45       7.37      17.34
C      16.57       7.45      17.80
C      13.82      12.08      17.57
C       3.63       7.12      15.27
C      15.84       8.03      22.60
C      10.92       7.06      14.75
C      13.76      12.79      15.00
C      10.47       6.80      12.20
C       4.27       7.01      12.74
C       7.21       1.14      12.46
C       4.64       8.40      13.32
C      11.70       5.95      12.61
C       5.79       0.94      13.02
C      11.95       6.08      14.13
C       4.31       8.44      14.83
C      11.57       7.30      22.32
C      12.29      12.84      14.51
C       4.62       6.91      11.33
C      10.17       6.59      10.80
C       7.14       1.52      11.05
C      11.19       7.22      16.17
C      16.95       7.24      16.66
C      13.81      12.42      16.40
C      13.76      11.51      18.89
C      15.92       7.84      19.02
C      11.88       7.71      18.67
C       6.46       2.65       4.71
C       6.91       2.40       8.56
C       9.17       5.94       8.46
C       5.24       6.39       8.82
C      17.98       9.74      26.50
C      12.35       7.28      26.56
C      12.29      10.67       0.12
C      10.16       4.11       0.98
C       4.36       5.87       0.93
C       5.96       3.01      27.41
C       4.47       7.26      26.97
C       9.31       5.73       4.97
C      10.49       5.60      26.96
C       6.02       2.08      26.17
C      11.95       5.85       0.58
C      17.73       8.36       0.49
C      12.07      11.58       1.34
C       4.29       7.30       3.95
C      10.15       5.95       3.83
C       6.33       1.96       3.44
C      10.97       6.81      23.53
C      16.49       7.89      23.87
C       4.94       6.80       5.13
C      13.55      11.93      24.07
C      17.27       8.36      26.38
C      10.87       6.88      26.17
C      13.39      13.18      26.42
C      10.58       5.60       1.25
C      17.31       7.17       1.39
C       6.26       0.66       1.11
C      15.80       6.92       1.21
C       9.54       6.55       0.61
C       7.74       0.44       0.69
C       4.60       5.94      15.03
C       9.92       8.02      26.59
C      15.97       8.40      27.22
C      14.78      13.73      26.85
C       3.95       7.39       2.79
C      10.54       5.83       2.68
C       6.22       1.42       2.35
C      10.83       6.70      24.74
C      16.91       8.07      25.00
C      13.48      12.43      25.18
C      16.06       6.90      14.41
C       9.50       6.51      14.53
C      11.04       8.44      14.05
C      14.53      11.76      14.14
C       9.23       6.34      13.02
C       5.02       5.91      13.54
C       7.92       2.25      13.28
C       7.96       1.87      14.78
Cl       5.84       9.70      25.60
Cl      12.84       8.72      25.61
Cl      16.98      11.01      25.72
Cl      13.41       9.33       0.59
Cl      13.46       5.93      26.11
Cl      11.21      11.65      27.12
Cl      11.41       2.99       1.65
Cl       6.14       6.15       1.07
Cl       3.76       1.56       0.36
Cl       3.96       4.52       2.02
Cl       8.63       3.75       1.82
Cl       6.68       4.60      27.00
O      11.22       8.45      21.93
O       5.41       3.14       5.21
O       9.42       4.58       5.52
O       6.00       7.43       5.52
O      11.41       8.78      19.17
O      14.90      11.35      19.50
O      15.24       6.94      19.63
O       4.73       5.31       8.40
O       8.01       2.46       7.88
O       8.56       6.90       7.85
O      12.64      11.16      19.34
O      14.70      11.19      22.18
O      16.01       9.07      19.36
O      12.73       6.91      19.22
O       5.79       2.84       8.18
O       9.18       4.72       8.10
O       6.05       7.14       8.17
O      13.57       9.07      20.74
O       6.78       4.88       6.71
O      14.98       7.17      22.24
O       4.48       5.73       5.63
O       7.65       2.71       5.21
O       8.46       6.63       5.29
O      12.45      10.90      22.32
O      16.15       9.10      21.96
O      12.51       6.56      21.82
O      10.33      10.72      20.64
O       3.43       3.49       6.86
