54

Al       9.80       4.99       8.59
Al       6.48       5.00       8.61
H       4.82       6.36       9.73
H       8.11       3.58       7.55
H       2.82       4.91       4.54
H       2.88       4.85       2.04
H       7.00       5.98       4.62
H       6.05       3.90      12.65
H      10.25       4.87      12.57
H      10.32       4.78      15.08
H       9.96       9.08       7.46
H       5.85       9.11      10.91
H       4.94       9.05       9.38
H       8.32       0.91       9.30
H       2.60       0.96      10.82
C       8.18       7.39       8.65
C       8.10       4.61      10.98
C       4.78       2.59       8.48
C       4.90       5.34       6.22
C       4.90       5.43       4.73
C       3.74       5.13       4.00
C       3.77       5.09       2.61
C       4.97       5.36       1.91
C       6.11       5.70       2.67
C       6.09       5.74       4.06
C       5.03       5.26       0.50
C       8.22       4.38      16.69
C       8.22       4.32      15.28
C       7.05       4.04      14.56
C       6.99       4.09      13.18
C       8.15       4.42      12.46
C       9.36       4.64      13.15
C       9.39       4.59      14.54
C       8.11       8.87       8.58
C       4.81       1.11       8.46
C       7.07       9.61       9.12
C       5.84       0.34       7.88
C       3.81       0.35       9.07
C       9.13       9.61       7.94
C       5.77       9.54       9.91
C       2.51       0.46       9.85
O       9.31       6.84       8.44
O       6.96       4.48      10.42
O       5.87       3.22       8.29
O       3.79       5.04       6.77
O       3.64       3.13       8.70
O       6.01       5.52       6.82
O       7.10       6.78       8.94
O       9.19       4.93      10.41
O       4.81       5.52       9.25
O       8.14       4.46       7.96
F       7.26       5.99       2.02
F       5.92       3.73      15.25
F       6.85       0.95       7.20
