188

Zr      -1.77      15.62       1.45
Zr      20.83       6.57      14.25
Zr      17.29       6.56      14.26
Zr       1.77      15.63       1.44
Zr       9.53      20.15      14.26
Zr       9.53       2.04       1.44
H       6.75      20.58      14.57
H      12.31      20.58      14.56
H      19.06       8.75      14.57
H       0.01      16.65       3.41
H      23.22      10.23      13.97
H      -4.10      11.93       1.78
H       7.56      16.23      13.98
H       6.31      14.13      13.96
H      11.55       5.94       1.76
H      12.74       8.07       1.72
H      23.17       5.65      10.66
H      -4.15      16.58       5.00
H       7.52       3.64       5.01
H       6.33       4.31       7.04
H      11.51      18.58      10.65
H      12.77      17.87       8.68
H       7.53       5.92       1.78
H      11.49      16.24      13.97
H       4.11      11.91       1.76
H       5.34       9.80       1.72
H      14.91      10.25      13.98
H      13.75      12.40      13.96
H       7.58      18.58      10.67
H      11.54       3.64       4.99
H       4.16      16.59       5.01
H       5.32      17.30       7.05
H      14.96       5.62      10.64
H      13.73       4.88       8.67
H      25.20       6.80      13.98
H       6.13      15.44       1.77
H      -6.14      15.44       1.76
H      12.93       6.80      13.97
H      16.92       9.07      10.65
H       2.15      13.07       5.00
H      -2.13      13.06       5.02
H      16.96      11.69       7.04
H      21.20       9.08      10.65
H       2.11      10.53       8.68
H       5.55      11.55      13.15
H      13.52      10.64       2.55
H       5.55       5.95       9.19
H      13.52      16.24       6.52
H       7.14       7.82       2.56
H      11.93      14.37      13.13
H       7.14      17.17       9.18
H      11.93       5.02       6.52
H      15.93      10.16       9.17
H       3.14      12.03       6.53
C      -2.20      12.74       0.05
C      21.27       4.28      11.99
C      11.82       3.86       0.02
C       7.25       1.31       3.64
C       5.02       0.04       0.03
C       0.02      14.00       3.64
C      14.04       0.04       0.03
C      19.05       8.09      11.99
C      16.87       4.26      12.00
C       7.25       3.87       0.05
C      11.81       1.33       3.63
C       2.19      12.73       0.02
C      12.54       5.16       0.02
C      -2.94      11.45       0.03
C      23.02      10.98      14.73
C      23.71      12.20      14.70
C      -3.91      11.18       1.00
C      -4.63       9.99       1.01
C       6.82      16.03      14.74
C       6.10      14.85      14.75
C      12.29       6.14       0.99
C      12.97       7.34       0.95
C      23.48      13.22      15.68
C      -4.42       8.98       0.01
C      22.01       3.84      10.79
C       6.52       1.74       4.86
C      22.98       4.67      10.21
C      23.71       4.27       9.09
C      -3.95      17.55       5.46
C      -4.64      17.92       6.61
C       6.78       2.97       5.46
C       6.10       3.34       6.61
C      12.25      19.24      10.21
C      12.97      18.85       9.10
C      23.49       3.00       8.47
C      -4.41      19.18       7.25
C       6.53       5.17       0.04
C       2.94      11.45       0.02
C       6.79       6.13       1.00
C       6.13       7.36       1.01
C      12.24      16.04      14.73
C      12.94      14.83      14.69
C       3.91      11.18       0.99
C       4.60       9.98       0.95
C      15.12      11.00      14.75
C      14.47      12.22      14.75
C       5.15       7.69       0.01
C      13.93      14.51      15.68
C      16.13       3.83      10.79
C      12.54       1.75       4.86
C       6.83      19.23      10.22
C       6.14      18.79       9.09
C      12.28       2.99       5.45
C      12.94       3.40       6.61
C       3.95      17.56       5.46
C       4.60      17.97       6.61
C      15.16       4.65      10.21
C      14.47       4.22       9.09
C       5.14      19.61       8.46
C      13.92       2.57       7.25
C      25.76       6.26      14.73
C      27.16       6.26      14.69
C       8.84       6.96      13.68
C       6.69      15.97       1.00
C       8.09      15.94       1.01
C       8.85      15.22       2.02
C      -6.70      15.97       1.00
C      -8.10      15.94       1.01
C      10.22      15.22       2.01
C      12.36       6.26      14.73
C      10.96       6.26      14.69
C      10.21       6.97      13.68
C      15.54       0.03       0.02
C       8.82      16.65       0.00
C       3.52       0.03       0.02
C      10.24       5.54      15.70
C      19.05       8.96      10.78
C       0.01      13.15       4.86
C      17.86       9.39      10.21
C      17.84      10.22       9.09
C       1.21      12.75       5.46
C       1.23      11.97       6.61
C      -1.18      12.75       5.46
C      -1.16      11.97       6.61
C      20.25       9.39      10.21
C      20.23      10.22       9.09
C      19.05      10.67       8.46
C       0.02      11.53       7.25
Br      11.18       7.90      12.34
Br       7.87       7.90      12.34
Br      11.19      14.27       3.35
Br       7.88      14.27       3.35
O      -2.49      13.57       0.97
O      21.56       5.43      12.48
O      21.63       8.57      14.79
O      -2.56      16.80       3.16
O      15.14       6.23      14.80
O       1.16      14.35       3.17
O       3.92      16.03       0.95
O      17.91       7.77      12.48
O       8.19      20.08      12.49
O       8.12       3.69       0.97
O      10.94       2.14       3.16
O      10.88      18.46      14.78
O      16.50       8.57      14.83
O       2.56      16.84       3.14
O       2.47      13.57       0.95
O      16.59       5.41      12.48
O      -3.93      16.04       0.96
O      20.18       7.75      12.47
O      22.99       6.24      14.80
O      -1.12      14.34       3.16
O       8.10       2.12       3.15
O       8.19      18.46      14.82
O      10.87      20.12      12.48
O      10.96       3.68       0.95
O       0.00      16.65       2.44
O      19.06       7.84      14.89
O      11.53      21.05      14.89
O       7.54      21.04      14.90
O      19.06       5.55      13.90
O       0.00      14.96       0.60
O      11.00       0.85       0.60
O       8.06       0.84       0.60
O       5.54      12.37      13.68
O      13.50       9.83       2.01
O       5.57       5.16       8.61
O      13.53      17.01       7.12
O       6.47       8.25       2.01
O      12.63      13.96      13.67
O       6.44      17.54       8.61
O      12.61       4.64       7.11
O      16.60      10.58       8.60
O       2.47      11.63       7.12
