69

Zn       8.53       9.68       6.46
Zn       8.40       6.70       6.69
H      10.25       6.27      10.44
H       4.53       3.72       8.62
H       7.32      13.90       8.71
H      10.28       4.96       5.64
H      12.81      13.29       6.03
H       6.25       5.30       7.78
H       9.70       3.73       1.95
H      11.00       6.35      12.83
H       9.04      10.36      10.65
H       7.25      10.02       2.61
H       8.87      11.99      11.73
H       6.91      10.15       0.14
H       9.20       5.68       3.36
H       7.33      11.53       7.92
H      10.48       9.95       4.79
H      11.59       3.16       4.53
H      11.89       2.23       6.01
H      11.07       1.45       4.65
C       8.11       8.07       4.07
C       9.60       8.33      10.44
C       7.49       9.17       1.97
C       7.30       9.23       0.59
C       9.05      11.93      12.80
C       8.09       6.94       0.36
C       8.34       6.88       1.77
C       9.80       9.56      12.53
C       8.90       4.59       0.13
C       9.24       4.62       1.51
C       8.96       5.70       2.30
C      11.13       7.93       6.22
C       9.46       9.50      11.17
C      10.15       7.17      11.04
C       8.00       8.02       2.58
C       8.11      13.54       8.06
C       9.55       4.19       5.93
C       9.84       2.83       5.75
C       8.85       1.93       6.11
C       7.60       2.35       6.58
C       7.46       3.75       6.87
C      10.21      13.89       6.84
C       9.13       8.27       9.02
C       9.14      14.41       7.66
C       5.37       3.36       8.02
C       6.32       4.23       7.58
C      10.01      12.58       6.31
C       8.10      12.24       7.61
C       5.91       8.50       6.92
C      12.55       8.12       6.31
C      13.75       8.29       6.48
C       3.26       8.44       6.68
C       4.47       8.54       6.84
C      10.55       7.22      12.35
C      11.16       2.39       5.20
S      11.06      11.98       4.93
N       9.00      11.78       6.70
N       8.44       4.64       6.51
O       7.88       9.19       4.63
O       8.40       7.00       4.71
O      10.42       8.91       5.75
O      10.64       6.85       6.65
O       9.20       9.34       8.33
O       8.70       7.14       8.61
O       6.53       9.60       7.08
O       6.41       7.34       6.79
O      11.13      13.07       4.00
O      12.26      11.43       5.52
O      10.24      10.84       4.28
