106

Zn      -3.06      12.54       8.27
Zn      -6.27      12.54       8.27
Zn      -4.66      13.47       5.66
Zn       4.66      -0.84       8.27
Zn      -6.27       3.62      14.58
Zn       4.66       8.08       1.96
Zn      -3.06       3.62      14.58
Zn      -4.66       0.84      14.58
C      -4.66      10.51       9.71
C      -7.23      11.99       5.53
C      -2.10      11.99       5.53
C       4.66       0.26       5.53
C       7.23      -1.21       9.71
C       2.10      -1.21       9.71
C       2.10       9.56       2.09
C       7.23       9.56       2.09
C      -4.66       5.65      13.14
C      -2.10       1.21      13.14
C      -7.23       1.21      13.14
C       4.66       5.12       2.09
C       8.30      -0.59      10.59
C      -8.30       0.59      12.26
C       8.22       0.76      11.02
C      -8.22      -0.76      11.84
C      -9.43       1.34      11.84
C       9.43      -1.34      11.02
C      -8.30      11.37       4.65
C       8.30      10.18       2.97
C      -8.22      11.41       3.23
C       8.22      10.13       4.39
C       9.43      10.83       2.41
C      -9.43      10.71       5.21
C      -1.03      11.37       4.65
C       1.03      10.18       2.97
C      -1.11      11.41       3.23
C       1.11      10.13       4.39
C      -0.10      10.83       2.41
C       0.10      10.71       5.21
C       1.03      -0.59      10.59
C      -1.03       0.59      12.26
C       1.11       0.76      11.02
C      -1.11      -0.76      11.84
C       0.10       1.34      11.84
C      -0.10      -1.34      11.02
C      -4.66       9.26      10.59
C      -4.66       6.89      12.26
C      -5.88       8.66      11.02
C      -3.45       7.50      11.84
C      -5.88       7.50      11.84
C      -3.45       8.66      11.02
C       4.66       1.51       4.65
C       4.66       3.88       2.97
C       4.66       2.81       5.21
C       4.66       2.57       2.41
C       4.66       3.97       4.39
C       4.66       1.41       3.23
Cl       6.92       1.79      10.58
Cl      -6.92      -1.79      12.27
Cl      -9.68       2.98      12.27
Cl       9.68      -2.98      10.58
Cl      -6.92      12.16       2.40
Cl       6.92       9.38       5.22
Cl       9.68      10.97       0.72
Cl      -9.68      10.57       6.90
Cl      -2.41      12.16       2.40
Cl       2.41       9.38       5.22
Cl      -0.35      10.97       0.72
Cl       0.35      10.57       6.90
Cl       2.41       1.79      10.58
Cl      -2.41      -1.79      12.27
Cl       0.35       2.98      12.27
Cl      -0.35      -2.98      10.58
Cl      -7.42       9.27      10.58
Cl      -1.91       6.89      12.27
Cl      -7.42       6.89      12.27
Cl      -1.91       9.27      10.58
Cl       4.66       3.09       6.90
Cl       4.66       2.29       0.72
Cl       4.66       5.48       5.22
Cl       4.66      -0.09       2.40
O      -4.66      13.47       7.62
O      -3.54      10.99       9.37
O      -7.37      11.90       6.79
O      -3.08      12.55       4.95
O      -5.79      10.99       9.37
O      -1.96      11.90       6.79
O      -6.25      12.55       4.95
O       4.66      -0.87       4.95
O       6.25      -0.48       9.37
O       4.66       0.43       6.79
O       7.37      -2.43       9.37
O       1.96      -2.43       9.37
O       3.08      -0.48       9.37
O      -4.66       2.69      15.24
O       1.96       9.64       0.83
O       6.25       8.99       2.67
O      -3.54       5.17      13.49
O       3.08       8.99       2.67
O      -5.79       5.17      13.49
O       7.37       9.64       0.83
O      -1.96       2.43      13.49
O      -6.25       0.48      13.49
O      -3.08       0.48      13.49
O      -7.37       2.43      13.49
O       4.66       6.25       2.67
O       4.66       4.96       0.83
