108

Al       1.65      15.90      17.43
Al       5.03       5.32       5.83
Al       5.00      15.94      17.46
Al       1.69       5.29       5.80
H       2.10      20.41      12.70
H       4.63       1.71      11.31
H       5.40      12.33      22.94
H       1.25       9.79       1.06
H       2.07      18.81      14.60
H       4.63       3.21       9.33
H       5.40      13.83      20.97
H       1.28       8.20       2.97
H       4.56      18.12      13.98
H       2.09       2.33       8.63
H       1.26      12.94      20.26
H       5.47       7.50       2.35
H       4.59      19.63      12.01
H       2.08       0.74      10.54
H       1.26      11.36      22.17
H       5.44       9.02       0.38
H       4.43       0.90       0.59
H       2.26      20.33      22.66
H       1.08       9.71      11.03
H       5.60      11.52      12.23
H       4.69      19.72      21.25
H       2.01       1.53       1.99
H       1.34      12.14      13.62
H       5.34       9.11       9.62
H       3.30      17.66      17.71
H       3.39       3.54       5.71
H       6.64      14.16      17.35
H       0.04       7.04       6.08
C       3.32      14.28      15.67
C       3.32       6.95       7.59
C       0.03      17.57      19.22
C       0.02       3.66       4.04
C       3.35      14.37      19.30
C       3.39       6.85       3.96
C       6.64      17.47      15.59
C       6.68       3.76       7.67
C       1.17      19.89      12.95
C       5.54       1.81      10.71
C       4.49      12.43      22.34
C       2.17       9.27       1.32
C       1.16      19.01      14.03
C       5.53       2.67       9.61
C       4.50      13.29      21.25
C       2.18       8.39       2.40
C       6.66      18.38      14.41
C       0.01       2.86       8.86
C       3.33      13.47      20.49
C       3.37       7.76       2.78
C       5.48      18.62      13.69
C       1.18       2.18       9.22
C       2.16      12.79      20.85
C       4.55       8.01       2.05
C       5.50      19.49      12.60
C       1.18       1.30      10.30
C       2.17      11.92      21.94
C       4.53       8.87       0.96
C       0.00      20.15      12.21
C       0.01       1.10      11.07
C       3.33      11.72      22.70
C       3.34       9.53       0.58
C       5.53      20.80      22.58
C       1.16       0.44       0.67
C       2.19      11.05      12.30
C       4.50      10.19      10.95
C       0.13      20.28      22.25
C       6.56       0.96       1.01
C       3.47      11.57      12.64
C       3.21       9.66      10.61
C       1.28      20.72      22.93
C       5.41       0.52       0.33
C       4.62      11.13      11.96
C       2.07      10.10      11.30
C       0.18      19.33      21.21
C       6.52       1.91       2.05
C       3.51      12.53      13.68
C       3.17       8.71       9.58
C       6.65       2.72       2.95
C       0.06      18.52      20.30
C       3.28       7.90       8.67
C       3.38      13.33      14.59
O       4.48      14.82      18.93
O       2.27       6.56       4.49
O       1.08      17.18      16.12
O       5.55       4.20       7.30
O       2.16      14.70      16.01
O       4.46       6.67       7.10
O       5.57      17.28      18.73
O       1.18       4.08       4.38
O       2.23      14.62      18.74
O       4.53       6.45       4.36
O       5.50      17.06      16.00
O       1.11       4.00       7.10
O       1.16      17.11      18.85
O       5.59       3.98       4.56
O       4.43      14.60      16.20
O       2.19       6.50       7.22
O       3.32      16.73      17.43
O       3.37       4.50       5.84
O       6.66      15.12      17.48
O       0.02       6.11       5.79
O       4.42      20.39      21.92
O       2.28       0.85       1.33
O       1.07      11.47      12.96
O       5.61       9.77      10.29
