106

Zn      20.05       5.90      14.54
Zn       7.54      13.70       1.21
Zn      25.88      16.91      14.21
Zn      19.15      14.52       2.47
Zn      12.87       7.25       7.88
Zn      11.65      10.04       9.34
Zn      12.04       9.64       6.23
Zn      14.66       9.78       8.14
H      13.31       5.90      11.72
H       9.17       7.12      12.10
H       4.32       0.80       0.46
H      16.42       5.04       7.29
H      17.07       7.10      11.04
H      18.73       3.15      10.39
H       8.93       7.22       4.38
H      12.56       4.90       4.11
H       9.19       4.00       1.54
H      16.48      11.37      11.13
H      12.85      13.57      11.95
H      16.46      14.43      14.16
H      23.59      13.52       9.01
H       9.09      12.21       4.90
H      20.97      15.52       6.22
H      15.07       7.68       3.56
H      16.48      11.71       4.24
H      17.72       9.54       0.72
C      12.25       5.21      13.46
C      12.37       5.91      12.27
C      11.26       6.61      11.78
C      10.04       6.58      12.47
C       9.93       5.80      13.63
C      11.05       5.13      14.15
C       8.61       5.58      14.33
C      11.44       7.35      10.50
C      17.68       4.04       8.73
C      16.88       5.08       8.28
C      16.66       6.18       9.12
C      17.24       6.23      10.39
C      17.95       5.12      10.86
C      18.18       4.02      10.02
C      18.43       4.98      12.27
C      15.70       7.22       8.63
C       8.96       5.64       2.92
C       9.50       6.42       3.93
C      10.80       6.13       4.36
C      11.55       5.11       3.76
C      10.98       4.36       2.73
C       9.66       4.60       2.31
C      11.72       3.21       2.11
C      11.37       6.94       5.48
C      16.58      12.85      12.69
C      15.94      12.12      11.70
C      14.58      12.38      11.45
C      13.90      13.37      12.16
C      14.59      14.13      13.11
C      15.93      13.86      13.40
C      13.92      15.26      13.81
C      13.93      11.57      10.38
C      22.28      14.62       7.69
C      23.19      13.62       8.00
C       9.27      12.75       6.98
C       8.76      12.89       5.69
C      22.13      13.87       5.42
C      21.72      14.75       6.43
C      21.52      13.96       4.06
C      10.24      11.65       7.27
C      16.45       8.48       2.12
C      15.67       8.53       3.27
C      15.69       9.71       4.03
C      16.46      10.80       3.64
C      17.15      10.75       2.43
C      17.17       9.58       1.66
C      17.85      11.97       1.92
C      14.80       9.81       5.23
O      13.33       0.37       0.76
O       2.00       1.02       0.70
O      21.91       6.21      13.90
O      10.94       8.52      10.40
O      12.13       6.73       9.62
O      18.29       3.80      12.74
O      18.93       5.98      12.88
O      15.82       8.42       9.05
O      14.81       6.81       7.82
O      11.31       2.07       2.50
O      12.64       3.45       1.27
O      10.92       8.13       5.61
O      12.24       6.39       6.23
O      12.77      15.62      13.37
O       7.91      12.07       0.18
O      14.69      11.27       9.40
O      12.70      11.24      10.52
O      20.45      14.65       3.95
O       7.77      13.32       3.12
O      10.87      11.19       6.26
O      10.36      11.27       8.48
O      18.09      12.90       2.76
O      18.12      11.98       0.67
O      13.58       9.53       5.02
O      15.33      10.18       6.33
O      12.79       9.21       7.98
F      13.34       4.57      13.97
F      17.93       2.99       7.91
F       7.68       5.88       2.52
F      17.88      12.58      12.97
F      21.92      15.50       8.66
F      16.49       7.33       1.40
