172

Zn      20.64      10.82      15.19
Zn      10.77      21.67       1.39
Zn      21.54      10.83       1.39
Zn       9.87      21.65      15.20
H      22.63      10.82       8.24
H      19.55      10.83       8.35
H       8.78      21.66       8.34
H      11.86      21.66       8.24
H      13.77       3.01       2.15
H      15.28       4.53       3.40
H      23.62      13.82      14.45
H      28.40      18.65      14.43
H      26.89      17.13      13.19
H      18.56       7.84       2.13
H       7.78      18.65       2.16
H       6.27      17.12       3.40
H      17.65      29.50      14.46
H      12.87      24.66      14.43
H      14.38      26.19      13.19
H       3.00      13.81       2.13
H       7.77       3.02       2.16
H       6.25       4.53       3.40
H      17.66      13.81      14.46
H      12.86      18.63      14.43
H      14.38      17.11      13.18
H       2.97       7.83       2.13
H      13.76      18.65       2.15
H      15.26      17.12       3.40
H      23.61      29.48      14.45
H      28.39      24.64      14.43
H      26.87      26.15      13.19
H      18.54      13.81       2.13
C       8.93      19.82       0.01
C       8.93       1.86       0.02
C      12.61       1.85       0.01
C      12.60      19.81       0.01
C      11.70      19.79      16.57
C      11.71      23.50      16.57
C      29.57      23.50      16.57
C      29.57      19.80      16.57
C      20.40      10.83       4.25
C      20.34      10.83       5.64
C      21.52      10.83       6.41
C      22.71      10.83       5.65
C      22.68      10.83       4.26
C      21.61      10.83       7.86
C      20.57      10.83       8.73
C      19.47      10.83      10.93
C      20.66      10.82      10.18
C      21.84      10.82      10.94
C      21.78      10.82      12.34
C      19.50      10.82      12.32
C      11.01      21.66      12.33
C      11.07      21.66      10.94
C       9.89      21.66      10.17
C       8.70      21.66      10.93
C       8.73      21.66      12.32
C       9.80      21.66       8.72
C      10.84      21.66       7.86
C      11.94      21.67       5.66
C      10.75      21.67       6.41
C       9.57      21.67       5.65
C       9.63      21.67       4.25
C      11.91      21.67       4.27
C      14.16       3.41       1.22
C      15.15       4.40       1.23
C      15.67       4.92       2.46
C      24.02      14.22      15.38
C      25.01      15.22      15.34
C      25.55      15.76      14.13
C      28.01      18.25      15.37
C      27.02      17.25      15.35
C      26.50      16.73      14.12
C      18.15       7.43       1.20
C      17.17       6.44       1.24
C      16.63       5.89       2.46
C      13.67       2.92       0.01
C      25.52      15.73      16.58
C      28.51      18.74      16.57
C      16.65       5.92       0.01
C       7.38      18.25       1.22
C       6.40      17.26       1.23
C       5.88      16.73       2.46
C      17.26      29.09      15.38
C      16.27      28.09      15.34
C      15.73      27.55      14.13
C      13.27      25.06      15.37
C      14.26      26.05      15.35
C      14.77      26.58      14.12
C       3.40      14.23       1.20
C       4.38      15.22       1.24
C       4.93      15.76       2.46
C       7.87      18.75       0.01
C      15.76      27.57      16.58
C      12.77      24.56      16.57
C       4.89      15.74       0.01
C       7.38       3.41       1.22
C       6.39       4.40       1.23
C       5.86       4.93       2.46
C      17.26      14.22      15.38
C      16.27      15.21      15.34
C      15.73      15.75      14.13
C      13.26      18.23      15.36
C      14.25      17.24      15.35
C      14.77      16.72      14.12
C       3.37       7.43       1.20
C       4.36       6.43       1.24
C       4.90       5.89       2.46
C       7.87       2.92       0.01
C      15.75      15.73      16.58
C      12.76      18.73      16.57
C       4.88       5.92       0.01
C      14.15      18.25       1.22
C      15.13      17.25       1.23
C      15.65      16.73       2.46
C      24.01      29.07      15.38
C      24.99      28.07      15.34
C      25.53      27.52      14.13
C      27.99      25.04      15.37
C      27.00      26.03      15.36
C      26.49      26.55      14.13
C      18.13      14.22       1.21
C      17.14      15.21       1.25
C      16.60      15.75       2.46
C      13.66      18.75       0.01
C      25.50      27.55      16.58
C      28.49      24.55      16.58
C      16.63      15.72       0.01
Br      17.27       6.54       4.14
Br      24.91      15.12      12.44
Br       4.30      15.11       4.14
Br      16.36      28.21      12.45
Br       4.26       6.54       4.14
Br      16.37      15.11      12.45
Br      17.24      15.11       4.14
Br      24.90      28.17      12.45
N      21.54      10.83       3.57
N      20.63      10.82      13.02
N       9.86      21.66      13.01
N      10.77      21.67       3.58
O      19.21      31.05      15.47
O       9.34      20.23       1.15
O       9.34       1.45       1.15
O      19.21      12.26      15.47
O      12.20       1.44       1.15
O      22.07      12.26      15.46
O      22.06      31.04      15.46
O      12.20      20.22       1.15
O       1.42       9.39       1.12
O      11.29      20.20      15.43
O      11.30      23.09      15.43
O       1.43      12.27       1.12
O      29.98      23.10      15.44
O      20.11      12.28       1.12
O      20.11       9.39       1.12
O      29.97      20.21      15.43
F       2.29      10.82       3.58
F      23.91      10.82       6.28
F      19.26      10.84       3.56
F      19.12      10.84       6.22
F      23.05      10.82      10.36
F      22.91      10.82      13.03
F      18.27      10.83      10.31
F      18.35      10.83      13.00
F      29.12      21.66      13.00
F       7.50      21.66      10.30
F      12.15      21.66      13.02
F      12.29      21.66      10.36
F       8.35      21.67       6.23
F       8.49      21.67       3.56
F      13.14      21.67       6.28
F      13.06      21.67       3.59
