124

Zn       1.44       8.73      13.06
Zn       7.54      -3.00      13.91
Zn      -5.33      -2.60      13.24
Zn       1.08       0.05       1.95
Zn      -6.65       7.44       7.10
Zn      -5.47       4.59       7.95
Zn       9.20       5.02       5.03
Zn       7.32       5.00       7.66
H      -3.52       8.90      12.70
H      -2.03       6.24      12.48
H      -3.22       6.71      13.71
H      -3.78       5.39      11.16
H      -5.01       6.02      12.26
H      -5.15       8.10      11.10
H      -3.17       9.25      10.28
H      -2.26       7.70      10.18
H     -12.01      10.83       9.21
H       2.25       8.32       9.05
H       2.34       9.67       7.91
H       3.94       7.13       7.97
H       3.79       8.26       6.61
H     -10.38       9.69       7.54
H     -10.00       9.74       9.99
H     -10.84       8.18      10.16
H      -4.03      10.75       2.03
H       9.86       8.96       0.61
H      -4.42       9.24       0.10
H      10.76       7.09       1.78
H      -3.55       7.77       1.80
H      -3.88       8.80       3.85
H      -5.46      10.59       4.04
H      -6.69       9.70       3.11
H      -6.96       1.53      13.46
H       6.20       0.79      12.48
H      -9.30       1.84      13.82
H       6.17       2.60      10.99
H      -9.42       3.70      12.31
H      -7.04       3.55      11.97
H      -5.98       1.46      11.23
H      -7.52       0.89      10.53
H      -2.50      -0.42       4.49
H      11.62       0.77       2.32
H       3.73      13.37       2.91
H       9.94       1.18       3.92
H      10.33      -0.27       4.86
H      -4.12       0.89       6.24
H      -2.16       1.90       5.28
H      -3.08       2.52       3.88
H       2.59       3.94       3.28
H       4.64       4.22       1.03
H       3.31       5.32       1.40
H       6.03       5.47       2.44
H       4.68       6.45       3.03
H       4.23       4.98       4.83
H       4.19       2.57       4.54
H       5.36       2.66       3.20
C      -1.43       8.90      12.58
C      -2.76       8.27      12.23
C      -2.97       6.80      12.64
C      -4.09       6.28      11.71
C      -4.37       7.43      10.71
C      -3.06       8.25      10.72
C      -4.83       7.01       9.33
C     -12.75       9.91      10.95
C       3.77       9.80       9.56
C       2.94       9.00       8.53
C       3.97       8.19       7.69
C       5.35       8.76       8.09
C     -10.79       9.11       9.58
C      -9.43       7.82       7.86
C      -5.82      11.61       1.34
C      -5.07      10.40       1.86
C      -5.06       9.14       0.98
C      -4.62       8.01       1.94
C      -4.85       8.56       3.38
C      -5.61       9.89       3.20
C      -5.55       7.64       4.36
C      -7.39      -0.45      12.94
C      -7.58       1.03      12.70
C      -9.03       1.57      12.79
C      -9.08       2.78      11.82
C      -7.65       2.93      11.28
C      -7.07       1.50      11.33
C      -7.47       3.57       9.92
C      -1.69       0.50       2.75
C      -2.79       0.38       3.79
C      11.74       0.14       3.22
C      10.77       0.59       4.33
C      -4.32       1.45       5.31
C      -2.98       1.69       4.59
C      -4.94       2.76       5.73
C       2.88       2.36       1.94
C       3.44       3.55       2.69
C       4.07       4.67       1.86
C       5.01       5.42       2.83
C       5.00       4.59       4.14
C       4.54       3.19       3.71
C       6.29       4.58       4.93
O       0.66       0.37       0.06
O      -1.46      10.16      12.78
O      -0.39       8.15      12.63
O      -4.33       5.96       8.81
O      -5.70       7.77       8.79
O      -4.55      -3.33      11.61
O       2.45       8.96      11.37
O       6.39       6.63       8.29
O      -8.41       8.31       7.26
O      -5.84      12.62       2.12
O      -6.35      11.54       0.18
O      -5.90       6.48       3.99
O      -5.73       8.15       5.52
O      -6.20      -0.89      12.76
O      -8.39      -1.13      13.32
O       7.42       3.82       9.22
O      -6.27       3.79       9.57
O      -0.58      -0.07       3.01
O      13.97       1.19       1.72
O      10.26       3.37       4.88
O      -4.64       3.18       6.90
O       2.12       1.58       2.62
O       3.18       2.23       0.70
O       7.39       4.75       4.29
O       6.18       4.38       6.19
O      -6.87       5.49       6.92
