54

Al       6.50       6.12       8.70
Al       9.90       6.15       8.72
H       4.82       4.66       9.68
H       8.20       6.99       7.18
H       9.53      10.09       8.16
H       6.94      10.25       9.08
H       6.20       2.02       8.05
H       5.98       6.39      12.54
H       5.77       6.59      15.03
H      10.27       6.67      12.86
H       2.71       5.60       4.56
H       7.00       5.71       4.83
H       7.18       5.45       2.36
H      10.04       6.93      16.42
H       2.90       5.24       1.01
C       8.23       6.36      11.09
C       8.17       3.74       8.60
C       4.77       5.91       6.31
C       4.86       8.53       8.75
C       8.25       2.24       8.54
C       4.83      10.02       8.68
C       2.67       1.55       8.77
C      10.42      10.68       8.36
C       6.00      10.76       8.88
C       7.11       1.48       8.30
C       8.13       6.51      12.57
C       6.87       6.49      13.17
C       6.75       6.59      14.55
C       7.91       6.71      15.35
C       9.18       6.75      14.72
C       9.29       6.65      13.34
C       7.87       6.80      16.76
C       5.07       5.29       0.64
C       5.04       5.40       2.05
C       3.77       5.43       2.69
C       3.68       5.57       4.07
C       4.85       5.69       4.83
C       6.11       5.63       4.21
C       6.21       5.49       2.84
N       3.93       2.29       8.79
O       7.14       6.10      10.48
O       9.25       4.35       8.85
O       3.62       5.86       6.86
O       5.99       7.97       8.92
O       5.88       6.15       6.89
O       3.74       7.94       8.60
O       9.37       6.48      10.54
O       7.02       4.26       8.46
O       4.81       5.55       9.29
O       8.20       6.69       8.10
O       4.35       2.62       7.67
O       4.50       2.49       9.87
O      10.32       6.87      15.48
O       2.63       5.33       1.95
