158

Zn       3.76      -7.51      15.44
Zn       2.60      16.48       0.11
Zn       3.66       3.77       8.70
Zn       2.34       4.92       6.66
Zn      -8.30      12.61       6.92
Zn      14.26      -3.75       8.65
H      -1.43       5.01      13.20
H       4.11       6.86      10.13
H      -0.40       0.98       2.79
H       4.42       7.84      12.33
H      -2.24      -1.92       5.38
H       6.58      11.14      10.61
H      -1.37      -0.28       9.84
H       6.68      10.17       5.89
H      -1.63       9.63      11.90
H       9.84       1.55       3.52
H      -0.43      11.03      10.27
H       5.26       0.34       2.62
H      10.97       2.90       5.24
H       1.41      10.04       8.89
H       9.64       3.96       7.08
H       1.91       7.65       9.03
H       7.21       3.62       7.20
H       2.44      -6.01      11.67
H      12.03       0.21       3.88
H      -9.10       9.35      14.71
H       1.26       4.35      14.77
H      -5.18      12.19       8.66
H     -10.22       9.31      12.46
H      12.97      -0.03       5.84
H      11.82      16.73       1.40
H      16.20       0.10       1.44
H      10.25      15.95       1.00
H       5.87       8.53      14.06
H       4.28       9.37      14.06
H      11.61      -7.44      14.81
H      -0.35       3.29      12.27
H       3.30       2.24       4.79
H       4.56       3.28       0.18
H       8.25      11.47       1.17
H       0.05      -5.38      15.15
H       5.81       2.65       1.31
H       2.00       8.15      15.24
H       0.99       8.19      13.75
H       2.16       6.85      14.00
H      -9.15      10.42      10.54
H       8.39      12.29       3.48
H       0.18       1.66       9.50
H       5.18       8.19       5.61
H       0.43       2.21       4.72
C       1.65      -7.19      13.88
C       7.05      14.60       0.67
C      -8.59       9.72      13.83
C       7.49      13.33       0.36
C      -9.22       9.73      12.57
C       7.93      12.49       1.40
C      -8.62      10.35      11.49
C       7.99      12.94       2.71
C      -7.30      10.85      11.59
C       7.58      14.25       3.05
C      -0.67      -6.92      12.82
C      11.34      -0.59       1.44
C       7.01      15.07       2.01
C       0.74      -6.67      12.80
C      12.34      -1.26       2.35
C      -1.99       7.54      13.54
C       7.84       0.48       2.14
C       1.36      -6.17      11.68
C      12.48      -0.76       3.62
C      -5.27      11.70      10.50
C      13.12      -1.51       4.64
C      -6.64      11.46      10.47
C      -0.93       5.62      12.45
C       7.67      14.78       4.38
C       1.11       2.65       7.28
C       4.18       6.63       7.49
C       1.71       5.20       9.75
C       4.80       2.96       6.41
C       7.38      11.42       8.08
C      -2.23      -1.99       8.01
C      -7.44      11.99       9.34
C       8.28      14.01       5.50
C      -0.15       1.31       4.88
C       5.79       0.90       3.40
C       4.64       7.80      10.21
C      -0.63       0.61       3.79
C       4.83       8.35      11.46
C      -1.40      -0.56       3.99
C       5.53       9.57      11.59
C      -0.85       9.20      11.29
C       9.26       1.98       4.34
C      -1.67      -1.00       5.27
C       6.05      10.20      10.48
C      -1.21      -0.30       6.41
C       0.03       5.04      11.59
C       5.87       9.66       9.19
C      -0.42       0.89       6.21
C       5.14       8.42       9.04
C       0.11       1.55       7.37
C       4.91       7.91       7.72
C      -0.24       1.14       8.64
C       5.40       8.58       6.60
C      -1.09       0.04       8.83
C       6.22       9.71       6.76
C      -1.52      -0.71       7.75
C       5.02       1.59       4.37
C       6.45      10.25       8.01
C      -0.17       9.98      10.38
C       9.89       2.74       5.30
C       0.85       9.42       9.59
C       9.14       3.34       6.33
C       1.14       8.07       9.68
C       7.78       3.16       6.39
C       0.45       7.23      10.59
C       7.09       2.39       5.42
C      -0.54       7.82      11.45
C       0.73       5.83      10.69
C       7.86       1.79       4.35
C      -1.19       6.97      12.41
C       7.16       1.03       3.36
C      16.64      -0.89       1.63
C       5.37       9.51      13.99
C       5.51       2.73       0.26
C       1.46       7.54      14.49
C       5.66       2.28       5.40
C      -1.41      -7.36      13.97
O       2.65      -6.46      14.23
O      11.57       0.61       1.04
O      -1.68       8.70      13.93
O       7.48      -0.67       1.71
O      -2.89       6.80      14.08
O       8.70       1.24       1.58
O       2.07       2.60       8.10
O       3.31       6.59       6.53
O       0.95       3.58       6.39
O       4.47       5.64       8.23
O       2.67       4.50      10.23
O       4.38      16.34       1.25
O       3.78       3.58       5.93
O       1.52       5.41       8.52
O       5.06       2.86       7.66
O       8.43      11.35       7.36
O      -3.22      -2.01       8.84
O      -4.58      12.20       9.45
O      13.28      -0.95       5.87
O      16.40      -1.31       2.97
O       5.74      10.20      12.79
O       0.26       3.69      11.63
O       7.06      12.41       8.83
O       3.68       1.53       4.22
O      -0.89      -7.27      15.24
O       0.39       6.81      15.12
O      -1.80      -3.02       7.40
O      -6.96      11.85       8.13
O      13.69      -3.44       6.66
O      -2.61      -4.97       9.60
O       9.30      13.26       5.23
O      -4.48       9.22      14.29
