49

Zn       6.34       6.51       6.99
Zn       3.86       6.02       8.88
Zn       6.39       3.97       8.92
Zn       4.44       4.02       6.40
H       3.27       2.58      15.20
H       6.29      -0.13       6.15
H      -0.26       5.95       8.35
H      10.76       3.70       7.80
H       0.08       3.16       7.07
H      10.57       6.71       8.44
H       5.24      -0.44       9.04
H       4.13      10.51       9.32
H       7.43       9.89       7.27
C       1.77       4.49       7.47
C       5.64      -0.77       8.08
C       4.83      10.15       8.56
C       8.77       5.50       8.22
C       5.60      11.01       7.86
C       4.83       8.70       8.30
C       5.77       1.61       7.39
C       4.93       4.76      11.34
C       5.69       5.63       4.29
C       4.79       4.62      12.77
C       4.50       4.28      15.35
C       6.05       6.06       1.69
C       6.23       6.27       0.33
C       6.61      10.51       6.84
C       4.66       4.46      13.97
C       5.87       5.85       2.88
C      10.23       5.69       8.28
C      11.13       4.71       8.02
C       0.34       4.13       7.49
C      -0.60       4.97       7.98
C       5.97       0.16       7.15
I       7.96       8.70       0.98
O       5.24       5.13       7.82
O       3.97       5.36      10.75
O       4.77       4.82       4.64
O       5.99       4.28      10.83
O       6.48       6.29       5.06
O       6.60      10.85       5.67
O       5.57       8.29       7.34
O       5.39       2.28       6.37
O       2.12       5.54       8.11
O       8.28       4.35       8.50
O       2.54       3.72       6.80
O       8.10       6.54       7.88
O       4.09       7.97       9.04
O       6.00       2.07       8.56
