196

Cu      16.92      18.26      20.00
Cu      18.23      19.70      17.49
Cu      19.29      16.85      18.46
Cu      27.39      11.57       5.25
Cu      26.37      10.35       2.52
Cu      25.13      13.08       3.62
Cu      12.94       3.45      25.65
Cu      11.79       4.68      28.33
Cu      10.17       2.41      26.85
Cu       1.96      26.80      10.57
Cu       3.13      25.58      13.24
Cu       4.77      27.82      11.70
H      14.84      20.47      20.91
H      16.56      22.41      17.44
H      19.83      14.36      20.37
H      16.34      16.10      22.27
H      20.13      20.20      15.00
H      21.33      16.19      16.13
H      29.28       9.22       6.25
H      28.22       7.77       2.31
H      24.76      15.68       5.41
H      28.09      13.78       7.42
H      24.83      10.05      30.07
H      23.03      13.72       1.32
H      15.55       5.24      25.27
H      14.21       6.56      29.18
H       9.35       0.30      24.64
H      13.15       1.65      23.04
H       9.46       5.60       0.22
H       7.53       2.32      28.61
H      29.38      24.96      10.18
H       0.79      23.59      14.05
H       5.59      29.86       9.42
H       1.69      28.61       7.99
H       5.27      24.71      15.41
H       7.41      27.94      13.47
H       0.34       6.28       2.57
H       1.63       4.75       4.96
H       0.33       6.70       5.62
H       2.09       4.53       1.90
H      14.36      23.90      17.58
H      13.04      25.33      20.02
H      14.11      23.18      20.57
H      12.66      25.71      16.97
H      27.99      22.75      10.21
H      26.44      21.20      12.43
H      28.31      22.54      13.27
H      26.39      20.98       9.33
H      16.92       7.46      25.32
H      18.59       8.92      27.52
H      16.74       7.54      28.40
H      18.47       9.25      24.43
H       2.30       0.66       6.46
H       4.63       1.94       4.84
H       5.35       0.76       6.85
H       1.57       2.37       4.69
H      20.10      13.17      22.75
H      17.99      11.66      24.48
H      17.08      13.56      23.24
H      21.08      11.61      24.55
H      12.55      29.53      21.58
H      10.19      28.27      19.99
H       9.51      29.43      22.03
H      13.24      27.79      19.80
H      24.60      17.01       7.75
H      26.84      18.51       9.32
H      27.60      16.48       8.16
H      23.76      18.63       9.54
H       5.98       2.36       0.68
H       4.57       4.81       2.02
H       6.72       5.34       0.92
H       4.22       1.75       2.43
H      22.29      20.19      13.61
H      23.76      18.05      11.88
H      22.42      17.11      13.70
H      24.06      21.14      12.02
H      22.65       9.97      28.63
H      21.10      12.13      27.00
H      22.30      13.01      28.95
H      20.93       9.04      27.00
H       8.79      27.90      15.80
H      10.17      25.45      17.16
H       8.01      24.94      16.10
H      10.57      28.49      17.57
C      15.40      20.76      20.03
C      15.32      21.95      19.27
C      16.26      21.74      18.24
C      18.99      14.97      20.70
C      18.09      14.78      21.77
C      17.19      15.85      21.64
C      20.29      19.23      15.47
C      21.14      18.18      15.08
C      20.89      17.18      16.03
C      28.88       9.05       5.26
C      29.15       8.00       4.36
C      28.36       8.31       3.24
C      25.54      15.03       5.78
C      26.47      15.22       6.82
C      27.26      14.06       6.78
C      24.41      10.88       0.41
C      23.46      11.87       0.09
C      23.58      12.79       1.15
C      15.03       5.44      26.21
C      15.38       6.30      27.27
C      14.36       6.09      28.21
C      10.31       0.77      24.43
C      11.18       0.57      23.35
C      12.26       1.44      23.63
C       9.28       4.80      29.84
C       8.07       4.09      29.90
C       8.23       3.08      28.93
C      -0.08      24.76      11.11
C      29.60      23.86      12.15
C       0.63      24.08      13.09
C       4.61      29.41       9.25
C       3.70      29.63       8.20
C       2.61      28.79       8.53
C       5.61      25.53      14.79
C       6.83      26.23      14.84
C       6.70      27.20      13.82
C       0.04       6.89       4.58
C       0.58       6.08       3.62
C       1.46       4.99       3.91
C       2.12       4.27       2.96
C      14.47      23.08      19.54
C      14.06      24.01      18.63
C      13.23      25.13      18.96
C      12.62      25.93      18.04
C      28.52      22.91      12.26
C      27.77      22.42      11.23
C      26.72      21.47      11.40
C      26.08      20.84      10.37
C      16.49       7.22      27.38
C      17.19       7.74      26.34
C      18.26       8.69      26.50
C      18.83       9.35      25.46
C       4.32       0.45       7.06
C       3.34       0.92       6.24
C       3.59       1.77       5.12
C       2.62       2.40       4.40
C      18.05      13.73      22.76
C      19.11      12.97      23.17
C      18.99      11.93      24.15
C      20.05      11.30      24.73
C      10.54      29.74      22.22
C      11.51      29.27      21.38
C      11.24      28.43      20.26
C      12.18      27.79      19.52
C      26.61      16.34       7.73
C      25.62      17.18       8.12
C      25.81      18.26       9.05
C      24.80      18.92       9.66
C       6.80       4.31       0.56
C       5.87       3.41       0.98
C       4.77       3.74       1.83
C       4.00       2.82       2.47
C      22.08      18.11      13.98
C      22.58      19.18      13.31
C      23.52      19.06      12.23
C      24.16      20.12      11.65
C      22.71      12.02      29.17
C      22.30      10.98      28.39
C      21.38      11.12      27.30
C      20.78      10.07      26.68
C       7.95      25.96      15.71
C       8.89      26.86      16.11
C       9.99      26.51      16.97
C      10.77      27.42      17.60
N      16.85      20.54      18.39
N      16.31      19.93      19.49
N      17.53      16.63      20.60
N      18.64      16.08      20.00
N      19.97      17.60      16.92
N      19.59      18.88      16.57
N      27.68       9.46       3.46
N      28.01       9.92       4.71
N      26.83      13.24       5.80
N      25.77      13.84       5.17
N      24.51      12.37       2.04
N      25.02      11.18       1.57
N      13.46       5.19      27.74
N      13.89       4.78      26.50
N      12.03       2.10      24.78
N      10.82       1.67      25.29
N       9.44       3.19      28.35
N      10.10       4.26      28.92
N       1.48      25.02      12.64
N       1.04      25.45      11.41
N       2.86      28.14       9.68
N       4.10      28.53      10.14
N       5.49      27.08      13.23
N       4.81      26.05      13.84
N       2.88       3.14       3.25
N      11.90      27.07      18.36
N      24.99      19.99      10.53
N      19.92      10.21      25.59
