352

Zn      24.18       9.51      16.60
Zn      12.74       1.36       1.34
Zn      13.61      14.98       8.18
Zn      11.40      14.28       9.76
Zn      24.69       9.83       8.68
Zn      26.91      10.54       7.09
Zn      14.12      15.31       0.25
Zn      25.56      23.45      15.52
H      14.29       6.77       2.24
H      11.21       4.28       3.90
H      10.54       6.10       5.50
H      10.22       8.27       6.88
H      10.38      10.49       7.98
H      13.79      11.54       5.57
H      15.66       9.93       4.63
H      15.82       8.47       3.62
H      15.38       8.32       5.34
H      13.98      10.90       2.95
H      12.55       9.96       2.48
H      14.16       9.45       1.94
H      31.49      17.66      12.64
H      14.23      18.82       9.69
H      14.45      21.09      10.74
H      26.16       4.85      12.09
H      25.59       6.70      13.69
H      31.15      22.52      15.83
H      29.64      19.25      13.71
H      29.54      20.73      14.71
H      29.78      20.85      12.95
H      31.55      18.40      15.23
H      32.99      19.42      15.50
H      31.41      19.88      16.20
H       9.83      11.78       9.88
H      28.37      10.68      11.41
H      28.44      14.29      13.80
H      30.13      15.20      12.20
H      26.25      10.66      12.10
H      24.69       9.57      13.74
H      16.45       5.18       0.08
H      28.03      12.72      15.47
H      16.96      13.48      10.67
H      13.43      11.68      12.33
H      14.82      10.33      13.93
H      16.67       9.15      15.30
H      18.76       8.39      16.40
H      21.11      11.08      14.00
H      20.40      13.44      13.06
H      19.14      14.18      12.05
H      18.82      13.84      13.76
H      20.61      11.51      11.38
H      19.16      10.58      10.91
H      19.35      12.27      10.37
H      24.04      18.33       4.21
H      18.05       2.10       1.27
H      20.21       1.37       2.31
H      10.17      18.69       3.67
H      11.63      17.42       5.26
H      28.34      16.03       7.41
H      24.74      15.98       5.29
H      26.04      15.29       6.28
H      26.26      15.45       4.52
H      24.74      18.07       6.80
H      26.26      18.97       7.07
H      26.04      17.34       7.77
H       9.83       0.96       1.46
H      16.40      18.32       2.99
H      19.72      16.91       5.38
H      21.24      18.09       3.77
H      15.51      16.39       3.68
H      13.88      15.42       5.31
H      16.39      16.10       8.51
H      18.12      17.18       7.05
H      21.34      11.34       6.19
H      24.87      13.14       4.53
H      23.48      14.48       2.92
H      21.63      15.67       1.55
H      19.54      16.43       0.45
H      17.19      13.74       2.86
H      17.90      11.38       3.80
H      19.16      10.63       4.81
H      19.48      10.98       3.09
H      17.69      13.31       5.48
H      19.14      14.23       5.95
H      18.95      12.55       6.48
H      14.26       6.49      12.64
H      20.26      22.72      15.59
H      18.09      23.45      14.54
H      28.13       6.12      13.19
H      26.67       7.40      11.59
H       9.96       8.79       9.45
H      13.56       8.84      11.57
H      12.26       9.53      10.57
H      12.04       9.36      12.33
H      13.56       6.74      10.05
H      12.04       5.85       9.78
H      12.26       7.48       9.08
H      28.47      23.86      15.40
H      21.90       6.50      13.87
H      18.58       7.91      11.48
H      17.06       6.73      13.08
H      22.79       8.42      13.18
H      24.42       9.40      11.54
H      21.91       8.71       8.34
H      20.19       7.63       9.81
H      24.01      18.05      14.61
H      27.10      20.53      12.95
H      27.76      18.72      11.35
H      28.08      16.55       9.98
H      27.92      14.32       8.88
H      24.51      13.28      11.28
H      22.64      14.89      12.22
H      22.48      16.34      13.23
H      22.93      16.50      11.52
H      24.32      13.91      13.90
H      25.76      14.86      14.37
H      24.14      15.37      14.91
H       6.81       7.16       4.22
H      24.07       6.00       7.16
H      23.85       3.73       6.11
H      12.14      19.97       4.76
H      12.71      18.12       3.16
H       7.15       2.29       1.02
H       8.66       5.56       3.14
H       8.76       4.09       2.15
H       8.52       3.96       3.91
H       6.75       6.42       1.63
H       5.32       5.40       1.35
H       6.89       4.93       0.65
H      28.47      13.03       6.97
H       9.94      14.13       5.44
H       9.86      10.52       3.05
H       8.17       9.62       4.66
H      12.05      14.15       4.75
H      13.61      15.24       3.12
H      21.85      19.64      16.77
H      10.27      12.10       1.38
C      13.48       6.65       2.96
C      12.77       5.43       2.99
C      11.72       5.24       3.91
C      11.36       6.25       4.79
C      11.01       8.97       6.59
C      11.10      10.21       7.21
C      12.11      11.13       6.85
C      13.02      10.81       5.83
C      13.76       9.03       4.05
C      13.13       7.65       3.86
C      12.07       7.45       4.77
C      11.92       8.66       5.58
C      12.92       9.58       5.19
C      15.24       8.93       4.43
C      13.60       9.89       2.78
C      13.12       4.33       2.04
C      12.22      12.43       7.57
C      32.17      18.42      12.24
C      12.77      18.13      11.10
C      13.65      19.08      10.58
C      13.77      20.34      11.16
C      33.69      23.10      12.90
C      25.13       5.72      13.79
C      32.47      23.92      14.84
C      31.85      22.66      15.01
C      31.56      20.24      14.05
C      32.28      19.67      12.83
C      33.16      20.64      12.28
C      33.06      21.86      13.06
C      32.13      21.65      14.11
C      30.04      20.27      13.84
C      31.90      19.44      15.32
C      12.64      16.80      10.41
C      23.90       6.63      15.77
C      29.64      12.28      10.78
C      28.71      11.69      11.62
C      28.26      12.40      12.75
C      28.77      13.69      12.97
C      29.70      14.21      12.07
C      27.28      11.79      13.66
C      26.31      10.89      13.17
C      25.44      10.30      14.06
C      26.36      11.42      15.86
C      27.29      12.05      15.04
C      16.52      12.79      11.39
C      15.12      12.64      11.41
C      14.52      11.76      12.33
C      15.29      11.02      13.22
C      17.63       9.58      15.01
C      18.80       9.16      15.64
C      20.05       9.71      15.28
C      20.13      10.67      14.26
C      18.80      12.07      12.47
C      17.29      12.07      12.29
C      16.68      11.17      13.19
C      17.72      10.55      14.01
C      18.97      11.08      13.61
C      19.32      13.47      12.86
C      19.53      11.58      11.20
C      14.26      13.41      10.46
C      21.29       9.28      15.99
C      25.01      18.63       3.82
C      16.82       1.04       2.68
C      18.05       1.46       2.15
C      19.25       1.05       2.73
C      29.90      18.11       4.47
C      10.54      17.40       5.36
C      30.15      16.65       6.41
C      28.76      16.60       6.58
C      26.42      17.34       5.62
C      26.20      18.22       4.40
C      27.44      18.63       3.85
C      28.52      18.04       4.64
C      27.94      17.28       5.68
C      25.83      15.93       5.41
C      25.83      17.97       6.90
C      15.56       1.46       1.99
C      10.88      15.90       7.34
C      18.38      18.83       2.35
C      17.46      18.22       3.20
C      17.92      17.52       4.32
C      19.31      17.47       4.54
C      20.16      18.10       3.65
C      16.96      16.88       5.23
C      15.75      16.36       4.74
C      14.85      15.80       5.63
C      16.25      16.19       7.43
C      17.20      16.78       6.61
C      21.78      12.03       5.46
C      23.18      12.18       5.44
C      23.78      13.05       4.52
C      23.01      13.80       3.63
C      20.67      15.23       1.84
C      19.50      15.65       1.22
C      18.26      15.11       1.58
C      18.17      14.15       2.60
C      19.50      12.75       4.38
C      21.01      12.75       4.57
C      21.62      13.64       3.66
C      20.58      14.27       2.85
C      19.33      13.74       3.24
C      18.98      11.35       3.99
C      18.78      13.24       5.65
C      24.04      11.41       6.39
C      17.01      15.54       0.86
C      13.29       6.19      13.04
C      21.48      23.77      14.18
C      20.25      23.36      14.70
C      19.05      23.77      14.12
C       8.40       6.71      12.38
C      27.76       7.42      11.49
C       8.15       8.16      10.44
C       9.54       8.21      10.27
C      11.88       7.48      11.23
C      12.10       6.59      12.45
C      10.86       6.19      13.00
C       9.78       6.78      12.22
C      10.36       7.54      11.17
C      12.47       8.89      11.44
C      12.47       6.85       9.96
C      22.75      23.35      14.87
C      27.42       8.92       9.51
C      19.92       5.99      14.50
C      20.84       6.59      13.66
C      20.38       7.29      12.53
C      19.00       7.35      12.31
C      18.14       6.72      13.21
C      21.34       7.94      11.62
C      22.55       8.46      12.11
C      23.45       9.01      11.22
C      22.05       8.62       9.42
C      21.10       8.04      10.24
C      24.82      18.17      13.89
C      25.53      19.38      13.86
C      26.58      19.58      12.95
C      26.94      18.57      12.06
C      27.30      15.85      10.27
C      27.20      14.61       9.64
C      26.19      13.69      10.00
C      25.28      14.01      11.02
C      24.54      15.79      12.81
C      25.17      17.17      12.99
C      26.23      17.36      12.09
C      26.38      16.16      11.27
C      25.39      15.23      11.66
C      23.06      15.89      12.42
C      24.70      14.93      14.08
C      25.18      20.49      14.82
C      26.08      12.38       9.29
C       6.13       6.40       4.61
C      25.53       6.69       5.75
C      24.65       5.73       6.28
C      24.53       4.47       5.70
C       4.61       1.72       3.95
C      13.17      19.10       3.07
C       5.84       0.90       2.01
C       6.45       2.15       1.85
C       6.74       4.58       2.80
C       6.02       5.14       4.02
C       5.14       4.18       4.57
C       5.24       2.96       3.79
C       6.17       3.17       2.74
C       8.26       4.55       3.01
C       6.40       5.38       1.53
C      25.66       8.01       6.44
C      14.40      18.18       1.09
C       8.66      12.53       6.08
C       9.59      13.12       5.23
C      10.04      12.42       4.11
C       9.53      11.13       3.89
C       8.60      10.61       4.78
C      11.02      13.03       3.20
C      11.99      13.92       3.69
C      12.87      14.52       2.80
C      11.94      13.40       0.99
C      11.01      12.77       1.82
N      30.13      13.52      11.00
N      25.46      10.55      15.38
N      19.70      18.77       2.57
N      15.09      15.72       6.95
N      18.60       6.05      14.28
N      23.21       9.10       9.90
N       8.18      11.30       5.85
N      12.84      14.27       1.48
O      14.03       4.56       1.17
O      12.48       3.24       2.16
O      11.27      12.75       8.36
O      13.26      13.14       7.33
O      11.82      15.95      10.90
O      13.35      16.63       9.37
O      21.68      18.35       0.01
O      24.20       7.81      15.37
O      14.84      14.14       9.60
O      13.00      13.27      10.59
O      21.19       8.28      16.79
O      22.35       9.93      15.76
O      14.45       1.06       2.47
O      15.69       2.19       0.94
O      30.55      15.49       8.44
O      12.07      15.70       6.95
O      23.46      10.67       7.26
O      25.30      11.55       6.27
O      17.12      16.53       0.07
O      15.95      14.88       1.10
O      23.86      23.75      14.38
O      22.61      22.63      15.91
O       7.75       9.32       8.41
O      26.23       9.12       9.90
O      24.27      20.26      15.68
O      25.83      21.58      14.69
O      27.03      12.07       8.49
O      25.04      11.68       9.52
O      26.48       8.86       5.95
O      24.95       8.19       7.48
O      16.62       6.47      16.84
O      14.10      17.01       1.48
