220

Zn       7.61       9.04      15.58
Zn      27.11      10.84      18.25
Zn       9.07      11.90      15.70
Zn      25.57      11.78      15.61
Zn      18.43       7.30       8.83
Zn      16.89       4.45       8.68
Zn      18.65       5.49       6.18
Zn      20.09       4.54       8.85
Zn      16.25      16.38      22.44
Zn      17.78      15.46      25.12
Zn      16.02      18.15      25.12
Zn      14.59      15.30      24.99
Zn      17.77       5.05      32.01
Zn      14.54       4.93      31.83
Zn      24.94      19.95      31.86
Zn      18.41      17.66       1.96
H      20.88       9.44      11.41
H       5.14       6.90      13.01
H      13.81      14.84      19.49
H       9.86      12.38      21.19
H      13.35       5.65      11.11
H      19.34      14.88      19.57
H      16.29      19.81      19.58
H      29.27      18.60      11.33
H      14.44       2.88       1.61
H      13.91       2.56       6.53
H      18.40      14.24       4.83
H       4.68       2.67       1.32
H      11.55       3.66      29.28
H      20.76      16.73      27.68
H      14.05       8.62      29.35
H      21.32       3.85      29.58
H      13.63      11.23      12.97
H      23.89      12.34      22.28
H       7.34       7.31      22.27
H      24.15      16.02      12.63
H      18.67       9.01       2.14
H       4.97       2.24       7.19
H      19.19      11.18      28.06
H      29.70      15.99      27.72
C       7.51       7.89      18.30
C       9.90      12.41      18.51
C      10.21       9.58      14.28
C      27.13      13.91      14.28
C      24.78       9.37      14.04
C      24.49      12.22      18.31
C      15.80       6.78      10.13
C      16.12       3.93       5.89
C      18.52       8.44       6.11
C      21.23       4.08       6.17
C      20.90       6.95      10.39
C      18.49       2.43      10.14
C      18.86      15.01      22.40
C      18.55      17.85      26.66
C      16.16      19.33      22.41
C      13.44      17.63      26.41
C      13.77      14.82      22.17
C      16.22      13.31      26.42
C      16.15       7.06      30.55
C      22.44      20.26      30.30
C      27.55      20.45      30.56
C      18.52      14.71       2.01
C      12.24       1.50       2.25
C       7.13       1.33       1.98
C      23.78       8.78      13.10
C      21.91       7.55      11.32
C      22.65       9.47      12.62
C      23.05       6.86      11.80
C      21.74       8.87      11.76
C      23.95       7.46      12.66
C      10.91      13.04      19.43
C      12.77      14.19      21.25
C      12.05      13.74      18.98
C      11.63      13.49      21.70
C      12.95      14.30      19.87
C      10.73      12.92      20.81
C      12.48       9.70      13.05
C      13.56       6.69      11.36
C      11.31       9.05      13.47
C      14.71       7.33      10.95
C      12.74       7.55      12.13
C      13.29       8.83      12.28
C      23.27      12.75      20.52
C      20.09      14.45      20.23
C      23.40      12.75      19.13
C      19.96      14.46      21.60
C      21.29      13.83      19.83
C      22.06      13.38      20.91
C       7.44       6.56      20.51
C       7.55       2.95      20.23
C       7.50       6.67      19.12
C       7.49       2.84      21.61
C       7.53       4.30      19.83
C       7.46       5.20      20.91
C      26.02      15.80      12.93
C      28.25      18.26      11.48
C      27.12      15.12      13.47
C      27.16      18.93      10.95
C      27.84      17.12      12.20
C      26.45      16.94      12.20
C      15.14       3.32       4.93
C      13.21       2.12       3.21
C      15.25       3.39       3.53
C      13.09       2.05       4.61
C      14.32       2.81       2.69
C      14.03       2.64       5.45
C      18.57       9.76       3.90
C      18.45      13.37       4.18
C      18.51       9.65       5.29
C      18.52      13.48       2.81
C      18.47      12.02       4.59
C      18.55      11.12       3.50
C       3.82       2.91       5.81
C       4.89       2.51       2.37
C       2.66       3.55       5.38
C       6.04       1.88       2.81
C       4.08       2.89       3.46
C       4.63       2.53       4.71
C      19.53      18.50      27.59
C      21.46      19.62      29.37
C      19.42      19.82      28.07
C      21.57      18.30      28.89
C      20.35      20.36      28.93
C      20.64      17.75      28.03
C      17.32      11.41      27.76
C      15.08       8.96      29.21
C      16.23      12.09      27.22
C      16.16       8.28      29.74
C      15.49      10.10      28.49
C      16.89      10.27      28.49
C      30.86      17.51      27.64
C      29.78      20.54      29.32
C      32.02      18.16      27.22
C      28.63      19.90      29.74
C      30.60      19.67      28.56
C      30.04      18.39      28.41
S      11.22       7.40      12.93
S      14.81       8.98      11.48
S      22.06      13.50      18.32
S      21.30      13.71      22.43
S       7.58       5.13      18.31
S       7.41       4.38      22.43
S      28.65      15.87      13.08
S      25.64      18.18      11.32
S      18.43      11.19       6.10
S      18.60      11.95       1.99
S       2.56       3.68       3.64
S       6.15       1.73       4.54
S      14.70      11.34      27.60
S      17.69       9.02      29.37
S      32.11      19.82      27.75
S      28.52      18.24      29.21
O       7.50      10.87      16.28
O       7.57       7.71      17.03
O       8.94      11.79      19.09
O      10.29      10.80      14.64
O       7.46       9.00      18.91
O       9.26       8.76      14.53
O      10.08      12.54      17.26
O       8.61      13.48      14.64
O      24.57      10.56      14.43
O      26.01      13.38      14.56
O      25.77       8.62      14.37
O      25.48      11.69      18.93
O      24.35      12.34      17.04
O      18.50       5.45       8.15
O      16.77       7.57       9.87
O      15.85       3.79       7.13
O      18.60       7.32       5.50
O      15.68       5.56       9.76
O      18.45       8.62       7.38
O      17.12       4.53       5.39
O      20.28       4.63       5.51
O      21.08       5.75      10.04
O      21.31       3.97       7.44
O      19.94       7.71      10.03
O      17.35       2.87       9.76
O      19.64       2.94       9.89
O      16.17      16.33      24.41
O      17.90      15.55      21.77
O      18.82      16.65      26.31
O      16.08      19.49      23.68
O      18.98      14.90      23.67
O      16.24      18.23      21.77
O      17.55      18.54      26.30
O      14.39      18.46      26.15
O      13.59      14.68      23.42
O      13.37      16.41      26.05
O      14.74      15.44      21.60
O      17.35      13.85      26.15
O      15.06      13.73      26.05
O      16.15       4.06      32.54
O      17.29       6.62      30.93
O      22.19      21.47      30.63
O      26.58      19.65      30.83
O      15.00       6.55      30.80
O      18.98       3.94      30.93
O      23.43      19.56      30.68
O      18.60      14.56       0.74
O      11.25       0.88       2.75
O      18.44      15.82       2.64
O      12.49       1.66       1.01
O       7.02       1.46       0.72
O       8.09       0.77       2.62
O      12.77      10.99      13.35
O      24.20      12.23      21.36
O       7.37       7.63      21.35
O      24.74      15.40      13.10
O      18.65       8.69       3.06
O       4.11       2.69       7.12
O      18.61      11.81      27.60
O      30.57      16.22      27.34
F      22.39      10.75      12.98
F      23.30       5.58      11.43
F      12.31      13.90      17.66
F      11.37      13.33      23.02
F      16.28       4.04       2.94
F      12.06       1.41       5.20
F      18.39      20.61      27.70
F      22.61      17.51      29.26
