91

Zn       3.11       9.35      10.25
Zn       5.47       7.38      10.63
Zn       5.80       9.65       8.43
Zn       3.75       7.27       7.88
H       9.00       9.02      12.65
H       4.11       7.88       1.20
H      -1.84       8.84      12.67
H       3.73       7.56       3.67
H       5.33       7.32      14.70
H       7.44      10.47       2.04
H       4.92       7.13      17.18
H       7.01      10.21       4.51
H      10.06       8.62       8.52
H      -0.04       7.34       6.33
H      -0.09       8.49      11.00
H       2.69      15.81      11.59
H       5.63       3.26      11.14
H       5.79      -0.33      11.08
H      -4.19       9.04      13.28
H      11.42       7.90       7.25
H      -1.78       6.99       4.88
H       2.99      13.32      11.43
H       4.94       3.31       6.88
H       4.88      16.30       7.92
H       5.25       0.80       6.82
H       5.28      13.82       7.83
H       1.25       8.56      14.14
H       0.81       8.23      16.60
C       5.09       4.90       9.07
C      10.39       8.68       9.55
C       9.78       8.92      11.89
C       4.33      11.95       9.55
C      -0.46       7.97       8.33
C       4.15      13.43       9.62
C       4.70      14.27       8.64
C       4.48      15.64       8.68
C       3.75      16.19       9.75
C       3.24      15.36      10.77
C       3.41      13.98      10.68
C      -2.17       7.58       6.67
C       5.63       1.33      10.19
C       5.53       2.73      10.20
C       5.54       0.63       8.93
C       3.58       8.06      12.82
C       5.28       3.42       9.01
C       5.15       2.74       7.78
C       5.31       1.37       7.75
C       5.36       8.86       4.23
C       6.40       9.69       3.77
C       6.63       9.83       2.42
C      12.45       7.93       7.58
C       5.81       9.17       1.49
C       4.74       8.37       1.94
C       4.53       8.20       3.31
C       1.79       8.04      16.17
C       5.12       8.70       5.70
C       2.04       8.22      14.81
C       2.84       7.63      17.02
C       3.31       7.93      14.28
C       4.35       7.53      15.13
C       4.12       7.42      16.50
C      -2.82       8.27       8.91
C       7.98       8.80      10.16
C       1.01       8.08       8.60
C      11.12       8.92      12.24
C       9.42       8.83      10.53
C      -0.82       7.60       7.04
C      -1.45       8.27       9.31
C      11.75       8.57       9.89
C      -3.49       8.74      11.26
C      -2.11       8.70      11.62
C      -1.13       8.50      10.69
N       3.52      17.57       9.89
N       5.69      -0.74       8.79
N       5.95       9.28       0.09
N       2.70       7.45      18.41
O       4.52       8.41       9.26
O       7.18       8.27      11.00
O       1.78       7.26       7.99
O       7.64       9.30       9.02
O       1.39       9.02       9.38
O       5.81       0.67      11.34
O      13.04       7.22       5.40
O       2.80       8.79      12.12
O       4.23       7.86       6.06
O       5.59       5.50      10.08
O       5.23      11.51       8.75
O       4.44       5.43       8.11
O       3.55      11.25      10.29
O       4.59       7.41      12.39
O       5.84       9.42       6.47
