93

Zn       8.92       8.07       8.03
Zn       6.09       8.09       8.05
H       7.42       0.89       5.79
H       9.58      15.27       6.91
H       5.58      15.34       6.93
H       5.44       0.88       9.26
H       9.44       0.81       9.25
H       9.71       8.75      14.89
H       9.60       8.67       1.13
H       5.84       9.52       1.14
H       5.95       9.59      14.98
H       6.96       6.07       1.19
H       5.57       7.15       1.21
H       7.07       6.14      14.93
H       9.26       6.94       1.15
H       9.37       7.01      14.89
H       5.68       7.22      14.94
H      13.69       8.46       5.90
H       1.33       8.48       5.92
H       1.31       9.75       9.45
H       1.32      10.24       7.76
H      13.67      10.23       7.74
H      13.67       9.74       9.44
H       1.33       6.05       8.78
H       1.32       7.27      10.06
H      13.69       6.04       8.77
H       1.34       6.77       6.33
H      13.70       6.75       6.32
H      13.68       7.26      10.05
H       6.72      15.01      13.45
H       8.49      14.98      13.45
H       7.44       0.34      14.03
H       8.33       0.75      11.71
H       6.57       0.78      11.72
H       6.70      14.48      10.91
H       8.46      14.44      10.90
C       7.47       8.10       5.43
C       7.51       5.48       8.05
C       7.50       8.10      10.65
C       7.53      10.67       8.06
C       8.71      15.66       7.44
C       7.42       0.49       6.81
C       7.49       4.04       8.07
C       7.55      12.11       8.07
C       8.54       0.45       8.73
C       7.44       1.41       8.11
C       7.60      15.66       9.38
C       7.58      14.74       8.06
C       6.31       0.49       8.74
C       6.48      15.70       7.45
C       7.47       2.82       8.10
C       7.56      13.33       8.07
C       8.92       7.90       0.75
C       6.87       9.46       0.78
C       6.99       9.53      15.31
C       7.52       8.16      12.11
C       7.50       8.15       1.31
C       9.05       7.98      15.29
C       7.61       8.22      14.77
C       6.70       7.09      15.33
C       6.58       7.02       0.79
C       7.56       8.20      13.32
C       7.50       8.16       2.77
C       7.48       8.13       3.98
C       0.94       7.74       6.63
C       0.92       9.49       8.46
C      14.07       9.49       8.45
C       1.45       8.09       8.05
C      14.09       7.73       6.62
C      13.56       8.08       8.04
C      14.08       7.03       9.05
C       0.93       7.04       9.06
C      12.11       8.07       8.03
C       2.90       8.10       8.06
C       7.59      15.11      10.78
C       7.43       0.12      11.85
C       7.61      15.63      13.27
N      10.96       8.06       8.03
N       4.05       8.10       8.06
N       7.49      10.73       1.37
N       7.59      10.80      14.69
O       8.62       8.07       5.99
O       6.33       8.11       5.99
O       8.66       6.04       8.03
O       6.38       6.07       8.05
O       8.63       8.06      10.08
O       6.35       8.10      10.11
O       8.67      10.09       8.05
O       6.39      10.11       8.06
O       8.72      10.81       1.45
O       6.69      11.60       1.73
O       6.77      11.68      14.38
O       8.81      10.87      14.54
