76

Al       0.01      17.15       8.87
Al       3.39       0.01       8.85
Al       0.01       8.58      17.72
Al       3.39       8.58       0.00
H       1.69       1.76       8.86
H       5.08      15.40       8.86
H       1.70       6.82       0.00
H       5.08      10.34      17.72
H       2.97       5.56       3.14
H       6.37      11.59      14.58
H       3.81      11.59       3.14
H       2.97       5.57      14.58
C       5.09       1.63      10.64
C       5.10       1.63       7.08
C       1.70      15.53       7.08
C       1.71      15.53      10.64
C       5.08       6.95      15.94
C       5.08       6.95       1.78
C       1.70      10.21       1.78
C       1.70      10.21      15.94
C       6.18       3.28       5.43
C       4.00       5.31       3.41
C       5.10       2.65       6.02
C       5.09       5.93       2.84
C       4.40       4.34       4.36
C       5.80       4.25       4.48
C       2.80      13.87      12.29
C       0.62      11.85      14.31
C       1.72      14.51      11.70
C       1.71      11.23      14.88
C       1.02      12.81      13.36
C       2.42      12.90      13.24
C       0.61      13.87       5.44
C       2.79      11.84       3.41
C       1.69      14.51       6.02
C       1.69      11.23       2.84
C       2.39      12.81       4.36
C       0.99      12.90       4.48
C       6.17       3.28      12.29
C       3.99       5.31      14.31
C       5.09       2.65      11.70
C       5.09       5.93      14.89
C       4.40       4.35      13.36
C       5.80       4.25      13.24
S       3.59       3.24       5.40
S       6.62       5.35       3.44
S       0.21      13.92      12.32
S       3.24      11.81      14.28
S       3.20      13.92       5.40
S       0.17      11.81       3.44
S       3.58       3.24      12.31
S       6.62       5.35      14.28
O       6.23       1.23      10.23
O       3.95       1.25       7.49
O       2.85      15.92       7.48
O       0.56      15.91      10.24
O       0.56      15.90       7.52
O       2.85      15.91      10.20
O       3.95       1.26      10.22
O       6.23       1.24       7.51
O       1.70       0.79       8.86
O       5.09      16.36       8.86
O       6.23       7.34      16.36
O       3.94       7.34       1.36
O       2.84       9.82       1.36
O       0.56       9.83      16.37
O       0.55       9.82       1.36
O       2.84       9.82      16.36
O       3.94       7.33      16.37
O       6.22       7.33       1.36
O       1.70       7.78       0.00
O       5.08       9.37       0.00
F       0.69       3.03       5.73
F       4.08      14.12      11.99
F       6.10      14.12       5.74
F       0.69       3.03      11.99
