178

Dy      -0.00       7.73      11.92
Dy       6.69       3.86       9.58
Dy       6.69       3.86       2.41
Dy      -0.00       7.73       4.75
Cu      10.04       5.80      14.33
Cu      -0.00      11.59      14.33
Cu       3.35       5.80      14.33
Cu       3.35       5.80       7.17
Cu      10.04       5.80       7.17
Cu       6.69       0.00       7.17
H       8.61       7.42       1.20
H       8.81       0.43       1.20
H       2.66       3.75       1.20
H       1.92       4.18       5.97
H      -4.03       7.85       5.97
H       2.12      11.16       5.97
H      -1.92       4.18      13.13
H      -2.12      11.16      13.13
H       4.03       7.85      13.13
H       4.78       7.42       8.37
H      10.73       3.75       8.37
H       4.58       0.43       8.37
H      -3.74       9.64       0.37
H       3.52      10.01       0.37
H       0.21       3.54       0.37
H       2.95       1.95       6.79
H       6.91       8.06       6.79
H      10.22       1.58       6.79
H      10.43       1.95      13.96
H       3.17       1.58      13.96
H       6.48       8.06      13.96
H       3.74       9.64       7.54
H      -0.21       3.54       7.54
H      -3.52      10.01       7.54
H      -4.59       8.58      13.55
H       3.03      11.28      13.55
H       1.56       3.33      13.55
H       2.10       3.01       7.95
H       8.25       8.27       7.95
H       9.73       0.31       7.95
H      11.29       3.01       0.78
H       3.66       0.31       0.78
H       5.13       8.27       0.78
H       4.59       8.58       6.39
H      -1.56       3.33       6.39
H      -3.03      11.28       6.39
H      -3.48       7.98       2.95
H       1.96      10.61       2.95
H       1.52       4.59       2.95
H       3.22       3.61       4.21
H       8.21       7.00       4.21
H       8.65       0.98       4.21
H      10.17       3.61      11.38
H       4.73       0.98      11.38
H       5.18       7.00      11.38
H       3.48       7.98      10.12
H      -1.52       4.59      10.12
H      -1.96      10.61      10.12
H      -2.23       8.59       1.89
H       1.86       9.23       1.89
H       0.37       5.36       1.89
H       4.46       3.00       5.28
H       7.06       6.23       5.28
H       8.56       2.37       5.28
H       8.92       3.00      12.45
H       4.83       2.37      12.45
H       6.33       6.23      12.45
H       2.23       8.59       9.05
H      -0.37       5.36       9.05
H      -1.86       9.23       9.05
C      -2.48       8.56      13.34
C       1.96       9.46      13.34
C       0.52       5.17      13.34
C       4.21       3.04       8.16
C       7.22       6.43       8.16
C       8.65       2.13       8.16
C       9.17       3.04       0.99
C       4.74       2.13       0.99
C       6.17       6.43       0.99
C       2.48       8.56       6.17
C      -0.52       5.17       6.17
C      -1.96       9.46       6.17
C      -3.72       8.65      14.23
C       2.66      10.49      14.23
C       1.07       4.04      14.23
C       2.97       2.95       7.27
C       7.76       7.55       7.27
C       9.35       1.10       7.27
C      10.42       2.95       0.11
C       4.04       1.10       0.11
C       5.63       7.55       0.11
C       3.72       8.65       7.06
C      -1.07       4.04       7.06
C      -2.66      10.49       7.06
C      -2.05       6.52       2.31
C      -0.02      10.11       2.31
C       2.07       6.56       2.31
C       4.65       5.07       4.86
C       8.76       5.03       4.86
C       6.67       1.49       4.86
C       8.74       5.07      12.02
C       6.72       1.49      12.02
C       4.62       5.03      12.02
C       2.05       6.52       9.48
C      -2.07       6.56       9.48
C       0.02      10.11       9.48
C      -2.91       7.74       2.04
C       1.47      10.24       2.04
C       1.44       5.20       2.04
C       3.78       3.85       5.13
C       8.14       6.39       5.13
C       8.16       1.35       5.13
C       9.60       3.85      12.29
C       5.23       1.35      12.29
C       5.25       6.39      12.29
C       2.91       7.74       9.21
C      -1.44       5.20       9.21
C      -1.47      10.24       9.21
N      -3.80       7.56       0.88
N       1.76      11.10       0.88
N       2.04       4.52       0.88
N       2.89       4.03       6.29
N       8.74       7.07       6.29
N       8.45       0.49       6.29
N      10.49       4.03      13.45
N       4.94       0.49      13.45
N       4.65       7.07      13.45
N       3.80       7.56       8.05
N      -2.04       4.52       8.05
N      -1.76      11.10       8.05
O      -1.76       7.50      13.44
O       0.68       9.37      13.44
O       1.08       6.32      13.44
O       4.93       4.09       8.06
O       7.77       5.28       8.06
O       7.38       2.23       8.06
O       8.46       4.09       0.89
O       6.01       2.23       0.89
O       5.62       5.28       0.89
O       1.76       7.50       6.27
O      -1.08       6.32       6.27
O      -0.68       9.37       6.27
O      -2.22       9.50      12.54
O       2.64       8.77      12.54
O      -0.42       4.92      12.54
O       4.47       2.09       8.96
O       6.27       6.67       8.96
O       9.34       2.83       8.96
O       8.91       2.09       1.79
O       4.05       2.83       1.79
O       7.12       6.67       1.79
O       2.22       9.50       5.38
O       0.42       4.92       5.38
O      -2.64       8.77       5.38
O      -1.27       6.54       3.30
O      -0.40       9.42       3.30
O       1.67       7.23       3.30
O       5.43       5.06       3.86
O       8.36       4.37       3.86
O       6.30       2.17       3.86
O       7.96       5.06      11.03
O       7.09       2.17      11.03
O       5.03       4.37      11.03
O       1.27       6.54      10.47
O      -1.67       7.23      10.47
O       0.40       9.42      10.47
O      -2.12       5.52       1.52
O      -0.85      10.67       1.52
O       2.97       6.99       1.52
O       4.57       6.07       5.65
O       9.67       4.60       5.65
O       5.84       0.92       5.65
O       8.82       6.07      12.81
O       7.54       0.92      12.81
O       3.72       4.60      12.81
O       2.12       5.52       8.69
O      -2.97       6.99       8.69
O       0.85      10.67       8.69
