164

La       8.75      19.49       0.18
La       4.66       5.38      18.74
H       5.04      14.61      10.96
H       9.12      14.47      11.15
H      11.04      14.96      14.64
H       6.96      18.10      10.51
H      10.79      18.07      11.70
H       6.70      16.10      14.29
H       2.32      14.59       0.33
H       6.41       4.21      13.97
H       9.62      19.07      12.84
H       5.53      17.47      14.95
H       8.19      20.34      14.34
H      12.27      19.25      15.77
H      10.24      16.12      15.93
H       6.15      19.66      11.28
H       5.06      15.13       9.02
H       9.14      12.74      12.17
H       8.81      17.40      17.43
H       4.73      21.45      12.11
H       8.42       7.02      14.37
H       4.34      15.72       2.93
H       7.51       9.05      12.92
H       3.43      14.87       5.28
H       1.99       1.06       3.49
H       6.07       3.65       0.08
H       3.96      20.34       5.97
H       8.04      11.18      18.00
H       6.74      18.07      18.22
H      10.83      22.38      12.55
H       5.77      16.11       6.90
H       9.85      10.95      13.68
H      11.77      18.98      10.31
H       7.68      15.01      15.54
H       7.84       2.27       1.99
H       3.76       2.52       1.65
H       8.91       3.23       3.59
H       4.83       4.32       2.15
H       8.51       2.71       5.25
H       4.42       5.78       1.21
H       7.91       4.28       4.63
H       3.82       5.60       2.89
H       5.04       1.83       4.21
H       0.96       4.55       0.63
H       5.43       3.35       5.08
H       1.35       5.79       1.88
H       6.15       1.81       5.62
H       2.06       5.90       0.24
H       4.29      19.95       8.19
H       8.37      13.22      17.04
H       4.42      13.81      15.40
H       8.51      18.53       9.20
H       5.39      11.70      16.18
H       9.48      18.71       6.95
H       5.78      10.38      12.09
H       9.86      14.43       6.77
H       4.80      12.49      11.32
H       8.88      14.24       9.02
C       3.83      16.39      11.15
C       7.92      15.12      12.82
C       4.32      15.15      11.58
C       8.41      15.20      11.50
C       3.99      14.63      12.84
C       8.08      16.28      10.67
C      11.34      15.39      13.68
C       7.25      17.29      11.17
C      10.85      16.65      13.31
C       6.77      17.27      12.49
C      11.18      17.11      12.02
C       7.09      16.16      13.28
C       5.90      21.31      17.93
C       9.98      22.97      15.74
C       5.81      20.05      18.52
C       9.89      23.20      14.38
C       7.41      19.65      16.87
C      11.50      21.50      14.43
C       9.45      18.68      13.85
C       5.37      18.33      14.30
C       8.64      19.41      14.70
C       4.56      19.35      14.78
C      10.02      17.45      14.23
C       5.94      18.38      13.02
C       8.35      18.95      16.00
C      12.43      20.48      13.99
C       9.78      17.03      15.55
C       5.70      19.54      12.26
C       4.24      16.96       9.85
C       8.32      14.02      13.72
C       4.54      13.33      13.30
C       8.62      16.37       9.30
C       4.88      16.19       8.86
C       8.96      12.86      13.24
C       5.68      10.88      14.20
C       9.76      16.59       6.69
C       6.32       9.65      14.65
C      10.40      16.69       5.39
C       8.96      17.76      16.41
C       4.88      20.56      12.73
C       7.69       7.76      14.70
C       3.61      16.24       3.55
C       7.17       7.73      15.98
C       3.09      17.47       3.18
C       7.20       8.84      13.94
C       3.12      15.79       4.79
C       5.06      18.11       7.36
C       9.15      11.93      15.48
C       5.20      20.04       4.16
C       9.29       9.36      18.20
C       5.38      18.69       6.07
C       9.47      10.84      16.39
C       4.76      19.79       5.48
C       8.85      10.57      17.61
C       6.18      19.14       3.75
C      10.26       8.73      17.44
C       6.67      19.12      17.92
C      10.76      22.38      13.64
C       5.29      16.75       7.65
C       9.37      11.84      14.10
C       4.05      18.33       9.56
C       8.13      14.11      15.11
C       6.91       2.14       2.56
C       2.82       3.04       1.37
C       8.13       3.23       4.35
C       4.05       5.06       1.95
C       5.83       2.38       4.74
C       1.74       5.20       1.03
C       4.45      18.89       8.36
C       8.53      13.10      15.97
C       6.85      19.08       2.45
C      10.93       7.46      17.74
C       4.70      13.06      14.67
C       8.78      17.62       8.67
C       5.25      11.86      15.11
C       9.33      17.72       7.40
C       5.49      11.14      12.82
C       9.58      15.33       7.31
C       4.94      12.34      12.39
C       9.02      15.23       8.58
C       7.51       6.78      17.05
C       3.42      18.24       1.98
C      13.35      22.52      18.34
C       9.26      23.69      16.80
S       6.07       9.03      16.24
S      10.15      18.06       4.36
S       6.55      18.01       4.99
S      10.63       9.62      16.02
S       7.04      21.32      16.65
S      11.12      21.73      16.10
N       6.95       2.57       3.84
N       2.87       4.38       1.46
O       5.89       1.63       2.05
O       1.80       2.41       1.02
O       7.86      18.34       2.28
O       3.77       7.10      17.06
O       6.40      19.85       1.51
O      10.49       6.76      18.73
O       6.86       6.80      18.17
O      10.94      19.32       1.70
O       8.46       5.96      16.84
O       4.38      17.82       1.25
O       5.55      23.68      17.90
O       9.63      23.57      18.04
O       9.54      17.12       0.11
O       5.46       4.68      16.47
