56

Al      -3.04       4.25       8.65
Al       0.28       4.25       8.65
H      -1.36       5.67       9.70
H       1.91       2.83       7.60
H       3.16       0.22       9.12
H      -2.61       8.27       8.18
H      -2.68       4.44      12.65
H      -2.60       4.20      15.14
H      -0.01       2.80      12.63
H       0.56       5.69       4.66
H       3.23       4.06       4.66
H       3.14       4.30       2.16
H      -1.04       1.99      14.63
H       0.11       1.32      15.82
H      -0.61       2.90      16.10
H       1.16       5.59       1.20
H       0.43       7.17       1.48
H       1.58       6.50       2.66
C       1.89       3.89      11.03
C       1.98       6.65       8.70
C      -1.33       4.61       6.26
C      -1.42       1.84       8.60
C       1.94       8.15       8.68
C      -1.39       0.35       8.61
C       0.80       8.92       8.95
C      -0.25      -0.42       8.35
C       4.07      -0.35       8.92
C      -3.52       8.84       8.38
C       1.96       3.65      12.50
C      -3.53       4.03      13.20
C      -3.48       3.88      14.58
C       2.08       3.32      15.28
C       0.92       2.89      14.58
C       0.88       3.09      13.19
C       2.14       3.21      16.69
C      -1.60       5.29       0.61
C      -1.54       5.17       2.02
C      -0.37       5.60       2.72
C      -0.33       5.41       4.10
C      -1.41       4.84       4.80
C       4.07       4.47       4.10
C       4.02       4.62       2.72
C      -0.22       2.24      15.31
C       0.76       6.25       1.98
O       2.97       4.24      10.46
O       0.89       6.04       8.93
O      -0.20       4.74       6.83
O       4.09       2.39       8.82
O      -2.42       4.25       6.84
O      -0.34       2.46       8.37
O       0.75       3.76      10.46
O      -3.54       6.11       8.48
O      -1.38       4.79       9.28
O       1.94       3.70       8.02
F      -0.39       8.33       9.27
F       0.94       0.16       8.03
