76

Y       3.82       3.82       1.77
Y       6.50       6.50       8.86
Y       3.82       6.50      12.40
Y       6.50       3.82       5.32
H       4.38       0.36      12.64
H       5.95       9.97       5.55
H       0.36       5.95       9.10
H       9.97       4.38       2.01
H       4.38       9.97       1.54
H       5.95       0.36       8.62
H       0.36       4.38       5.08
H       9.97       5.95      12.17
H       5.16       4.09      10.63
H       5.16       6.24       3.54
H       4.09       5.16       7.09
H       6.24       5.16      14.18
C       4.74       2.31      11.77
C       4.72       0.91      11.76
C       4.33       3.09      12.97
C       5.59       8.02       4.68
C       5.61       9.42       4.67
C       6.00       7.24       5.88
C       2.31       5.59       8.22
C       0.91       5.61       8.22
C       3.09       6.00       9.43
C       8.02       4.74       1.14
C       9.42       4.72       1.13
C       7.24       4.33       2.34
C       4.74       8.02       2.41
C       4.72       9.42       2.41
C       4.33       7.24       1.20
C       5.59       2.31       9.50
C       5.61       0.91       9.50
C       6.00       3.09       8.29
C       2.31       4.74       5.95
C       0.91       4.72       5.96
C       3.09       4.33       4.75
C       8.02       5.59      13.04
C       9.42       5.61      13.05
C       7.24       6.00      11.84
C       5.16       3.00      10.63
C       5.16       0.21      10.63
C       5.16       9.04      10.63
C       5.16       7.33       3.54
C       5.16      10.12       3.54
C       5.16       1.29       3.54
C       3.00       5.16       7.09
C       0.21       5.16       7.09
C       9.04       5.16       7.09
C       7.33       5.16      14.18
C      10.12       5.16       0.00
C       1.29       5.16       0.00
O       4.23       2.49      14.10
O       4.13       4.34      12.84
O       6.03       8.46       9.90
O       6.10       7.83       7.01
O       6.20       5.99       5.75
O       4.30       1.87       2.81
O       2.49       6.10      10.55
O       4.34       6.20       9.30
O       8.46       4.30       6.35
O       7.83       4.23       3.46
O       5.99       4.13       2.21
O       1.87       6.03      13.44
O       4.23       7.83       0.08
O       4.13       5.99       1.33
O       6.03       1.87       4.28
O       6.10       2.49       7.17
O       6.20       4.34       8.42
O       4.30       8.46      11.37
O       2.49       4.23       3.62
O       4.34       4.13       4.88
O       8.46       6.03       7.82
O       7.83       6.10      10.71
O       5.99       6.20      11.97
O       1.87       4.30       0.73
