55

Al       4.74      11.06       6.81
H       3.01      13.11      10.60
H       2.38      15.14      11.94
H       1.79      17.33       8.30
H       4.01       9.24       0.66
H       2.28      13.20       3.11
H       2.66      13.31       0.64
H       2.88       6.80      11.82
H       4.01       7.10       7.02
H       4.52       5.01       8.30
H       1.32      15.12       6.13
H       3.02      14.67       6.04
H       2.56      16.39       6.21
H       3.41       7.85       2.71
H       3.25       8.66       4.29
H       0.85       8.64       3.47
H       1.06       9.14      10.79
H       2.44      10.17      10.40
H       2.47       9.15      11.87
C       2.83       9.29       7.84
C       2.76      12.79       7.94
C       2.79      11.15       4.75
C       4.65      18.46      12.84
C       1.50      17.52      10.93
C       4.65      19.65      10.89
C       2.73      14.04      10.10
C       2.38      15.16      10.85
C       2.01      16.34      10.19
C       2.04      16.39       8.79
C       2.34      15.26       8.02
C       2.65      14.07       8.70
C       3.62      10.10       1.21
C       3.40      10.00       2.59
C       2.93      11.15       3.26
C       2.66      12.33       2.56
C       2.87      12.40       1.19
C       3.38      11.29       0.51
C       3.09       6.87      10.76
C       2.76       8.04      10.06
C       3.09       8.10       8.68
C       3.74       7.01       8.07
C       4.02       5.85       8.77
C       3.70       5.77      10.13
C       2.32      15.37       6.52
C       3.72       8.72       3.31
C       2.16       9.19      10.82
N       5.21      17.39      12.24
N       5.22      18.64      10.22
N       4.33      19.60      12.20
O       3.68      11.80       5.40
O       3.66       9.51       6.88
O       3.70      11.97       8.19
O       1.81      10.52       5.27
O       1.84      12.60       7.08
O       1.81      10.01       8.07
