79

Al       2.91      17.62      10.21
H       1.18      19.69       6.62
H       2.09      -1.77       5.26
H       0.56       2.27       3.27
H       1.56      -7.96      16.49
H       2.68      -7.56      18.26
H       2.80       4.11       0.27
H       1.73       3.75       2.13
H       1.79      -3.82      13.79
H       1.71      -3.65      16.25
H       0.49       7.75       0.32
H       0.71      13.22       5.29
H       2.16      11.63       4.78
H       2.37       9.57       3.47
H       1.43       8.04       2.19
H       1.13      13.47      10.22
H       1.24      11.27       9.10
H       0.14       7.47       6.49
H       1.38       0.55       8.83
H       2.75       1.89       7.67
H       2.71       4.07       6.54
H       1.43       5.83       5.88
C       1.88      -4.09       9.24
C       0.93      15.88       9.13
C       1.87      -5.97      12.27
C       1.98      -2.85       7.10
C       1.94      -1.70       6.33
C       1.09       0.97       4.88
C       1.07       2.20       4.23
C       1.79      -7.13      14.54
C       1.65      -7.04      15.93
C       2.12      -6.80      18.80
C       2.09      -6.86      20.19
C       1.85      -2.80       8.49
C       1.73      -0.44       6.93
C       1.67       0.82       6.15
C       1.63       3.35       4.81
C       1.59       4.64       4.09
C       1.64       4.68       2.69
C       1.76      -4.73      14.40
C       1.69      -4.64      15.78
C       0.89      -4.75      18.83
C       0.85      -4.81      20.22
C       0.85      14.49       7.00
C       0.84      13.25       6.37
C       1.68      10.72       5.14
C       1.80       9.56       4.40
C       1.82      -5.97      13.75
C       1.61      -5.79      16.58
C       1.52      -5.75      18.06
C       1.63       5.92       0.51
C       1.59       5.90       1.99
C       1.47       7.09       2.72
C       1.05      13.40       9.13
C       1.09      12.16       8.50
C       0.49       9.55       6.85
C       0.61       8.37       6.11
C       1.67      -1.55       9.10
C       1.59      -0.39       8.32
C       2.24       1.98       6.71
C       2.22       3.22       6.07
C       0.94      14.58       8.39
C       0.97      12.06       7.11
C       1.03      10.77       6.39
C       1.27       8.35       4.87
C       1.41       7.08       4.12
C       1.48       5.85       4.79
Cl       0.68      15.92       6.03
Cl       1.47      -1.43      10.81
Cl       0.89      14.82      13.82
Cl      -0.38       9.41       8.34
Cl       0.32      -0.33       4.03
Cl       0.08      -3.38      18.13
O       2.82      -6.58      11.68
O       2.82      -4.29      10.07
O       1.87      16.71       8.90
O       0.96      -5.30      11.68
O       0.00      16.03       9.99
O       0.96      -4.92       8.96
