50

Al      -3.18       5.70       8.70
Al       0.15       5.66       8.69
H      -1.50       6.88      10.03
H       1.86       4.25       7.69
H       3.00       6.69       4.69
H       3.01       6.67       2.18
H       0.54       5.68       4.70
H      -0.27       5.48      12.72
H      -2.71       4.56      12.69
H      -2.72       4.43      15.19
H      -2.89       9.96       9.60
C       1.76       8.07       8.80
C       1.88       5.26      11.08
C      -1.49       3.28       8.57
C      -1.59       6.06       6.33
C      -1.57       6.17       4.84
C       3.92       6.47       4.13
C       3.92       6.47       2.74
C      -1.56       6.16       2.02
C      -0.39       5.90       2.77
C      -0.37       5.91       4.15
C      -1.55       6.07       0.62
C       1.83       4.94      16.78
C       1.84       4.90      15.37
C       0.67       5.17      14.63
C       0.65       5.25      13.25
C       1.85       5.05      12.55
C      -3.63       4.73      13.25
C      -3.64       4.65      14.64
C       4.06       0.98       8.14
C      -3.81      10.35       9.18
C      -1.57       1.82       8.59
C       1.81       9.54       8.76
C      -4.13      11.71       8.99
C       4.35      -0.38       8.38
S      -0.25       0.93       9.28
S       0.45      10.41       8.10
Cl       2.64       1.47       7.31
O       2.85       7.47       9.08
O       0.78       5.59      10.52
O      -0.34       3.79       8.82
O      -2.70       6.26       6.92
O      -2.55       3.93       8.31
O      -0.49       5.72       6.89
O       0.64       7.52       8.54
O       3.00       5.14      10.49
O      -1.51       6.18       9.35
O       1.82       5.15       8.05
F       0.76       5.62       2.10
F      -0.49       5.39      15.32
