70

Zn       5.08       8.42       7.63
Zn       5.08       5.63       7.63
H       9.44       5.18       7.39
H       0.72       5.18       7.86
H       2.70       7.97      14.28
H       3.67       5.88       0.83
H       6.48       5.88      14.42
H       7.45       7.97       0.97
H       5.30       1.00       9.78
H       4.86       1.00       5.47
H       5.29       3.50       9.68
H       4.87       3.50       5.57
H       8.71       8.86       8.53
H       1.44       8.86       6.72
H       1.91       8.38      12.23
H       3.64       5.61       4.35
H       6.51       5.61      10.90
H       8.25       8.38       3.03
H       7.36      12.64       5.50
H       2.80      12.64       9.75
C       4.86       7.02      10.22
C       5.30       7.02       5.03
C       4.60       6.95      14.51
C       5.56       6.95       0.74
C       5.20       1.51       8.82
C       4.96       1.51       6.43
C       5.20       2.90       8.78
C       4.96       2.90       6.47
C       5.08       0.79       7.63
C       5.95      12.66       6.80
C       4.20      12.66       8.45
C       5.92      11.26       6.87
C       4.24      11.26       8.39
C       5.08      13.39       7.63
C       2.51       7.07       7.45
C       7.64       7.07       7.80
C       9.95       6.12       7.62
C       0.20       6.12       7.64
C       9.12       7.16       7.92
C       1.03       7.16       7.33
C       3.56       7.52      13.77
C       4.47       6.37       1.39
C       3.63       7.57      12.37
C       4.44       6.33       2.79
C       4.72       6.98      11.69
C       5.44       6.98       3.56
C       5.72       6.33      12.46
C       6.53       7.57       2.88
C       5.69       6.37      13.86
C       6.60       7.52       1.48
N       5.08       3.58       7.63
N       5.08      10.57       7.63
O       4.53       8.07       9.59
O       5.63       8.07       5.67
O       5.37       5.97       9.66
O       4.78       5.97       5.59
O       3.12       8.15       7.11
O       7.03       8.15       8.14
O       3.07       6.00       7.86
O       7.09       6.00       7.39
O       9.55       8.35       8.41
O       0.60       8.35       6.85
O       2.64       8.15      11.63
O       3.41       5.67       3.39
O       6.74       5.67      11.87
O       7.52       8.15       3.62
O       6.82      13.30       5.98
O       3.33      13.30       9.27
F       6.80      10.58       6.11
F       3.35      10.58       9.14
