99

Zn      10.01      12.03       9.49
Zn      11.83      11.05       7.01
Zn       9.03       9.75       7.50
Zn      11.51       9.16       9.50
H      14.12       5.23       0.74
H      11.61       8.01       3.29
H       8.65      11.09       3.32
H       8.95      16.27      15.51
H      14.17      10.16      15.57
H      13.32       9.56      13.30
H      10.63      12.87      13.38
H       9.99      14.42      14.29
H       8.35      10.85       0.85
H      15.21       7.19       8.12
H       4.67       7.45       8.67
H      16.05      11.39       8.25
H       6.08      14.05       9.06
H      17.31      12.82       8.56
H      18.96      14.59       8.93
H      11.15      14.99       5.15
H       6.84       5.06       5.17
H       5.90       2.89       4.56
H      12.36      15.68       9.20
H       9.81       5.90      11.20
H      13.49      16.74      10.40
H      14.84      18.10      11.92
H       8.00       6.50       6.77
H       6.81       8.39       9.05
H      13.13       8.09       2.39
C      14.04       9.64       8.13
C       7.25      11.70       8.71
C      11.35      13.84       7.59
C       9.33       7.19       8.99
C      10.34       9.73       4.89
C      11.44      10.90      11.85
C      11.92      11.21      13.22
C      10.21       9.59       3.40
C      13.39      10.76      15.09
C      12.92      10.42      13.84
C      11.40      12.31      13.89
C      11.84      12.67      15.18
C      12.87      11.88      15.79
C      11.27      13.78      15.92
C      11.57       7.52       0.51
C      12.74       6.82       0.99
C      13.26       5.74       0.31
C      10.28      14.61      15.32
C       9.69      15.63      16.00
C       9.84       9.31       0.65
C      10.84       8.50       1.30
C       9.10      10.26       1.38
C       9.26      10.39       2.74
C      10.98       8.67       2.70
C       1.97       7.73       8.21
C      15.49       9.34       8.19
C       5.35      13.26       8.97
C      19.29      13.56       8.88
C      18.36      12.55       8.68
C       3.45      11.19       8.63
C       4.83      10.88       8.79
C      17.80      10.11       8.42
C       2.96       8.75       8.38
C       4.32       8.48       8.63
C       5.21       9.50       8.90
C      16.43      10.37       8.27
C      15.92       8.00       8.18
C       5.78      11.94       8.89
C       6.06       2.51       5.57
C      11.72      15.23       7.22
C       9.17       5.30      10.54
C      14.57      18.49      10.94
C      13.80      17.73      10.08
C       7.61       3.74       8.79
C       8.03       5.05       8.39
C      12.73      17.36       7.85
C       6.65       3.37       6.53
C       7.05       4.69       6.18
C       7.70       5.50       7.07
C      12.27      16.07       8.18
C      11.56      15.68       5.89
C       8.81       5.82       9.30
N       2.33       6.31       8.06
O      10.58      10.48       8.41
O      13.25       8.77       8.63
O       8.05      12.22       9.55
O      11.48      12.95       6.67
O       8.59       7.97       8.29
O      11.50      10.02       5.35
O      11.88       9.83      11.30
O       9.27       9.59       5.56
O      10.63      11.74      11.32
O      10.96      13.62       8.79
O      10.46       7.49       9.49
O      13.69      10.75       7.60
O       7.58      11.07       7.65
O       3.44       6.03       7.56
O       1.50       5.46       8.43
O       6.46       9.26       9.34
O      13.41       7.19       2.13
