138

Zn       8.09       7.86       9.78
Zn       8.54      10.83       9.86
H      14.33       6.07       8.93
H      14.24       5.96      10.72
H       2.01       5.36       9.85
H       2.18      12.10       8.86
H       2.41      12.31      10.63
H      14.56      12.85       9.85
H       7.27       3.07      13.15
H       8.56       4.32      13.16
H       8.94       2.62      13.62
H       9.61      16.95      12.54
H       9.42      15.40      13.46
H       8.24      16.74      13.68
H      11.01       5.91      12.07
H      10.95       5.66      10.29
H      10.71       4.25      11.42
H       8.33      13.11      13.38
H       6.81      12.19      13.23
H       6.75      13.99      13.20
H      12.86      17.79      11.46
H      11.90      16.33      11.90
H      13.44      16.16      10.99
H       4.89       2.42      11.91
H       3.79       1.02      11.60
H       3.30       2.67      11.10
H       7.32       6.14       2.88
H       8.64       5.72       1.74
H       7.64       7.17       1.45
H      11.24      12.89      15.55
H      11.99      11.32      15.99
H      11.69      12.54      17.26
H       7.50       6.12       5.64
H       8.93       5.51       6.54
H       8.96       5.55       4.74
H      11.41      12.04      12.37
H      11.00      10.32      12.28
H      12.14      10.90      13.54
H       7.29       1.91       6.98
H       7.09       3.45       6.08
H       5.82       2.18       6.00
H       8.84      16.07       6.71
H       9.54      14.47       6.28
H      10.42      15.97       5.84
C       8.73       9.37      12.38
C       8.15       9.47       7.27
C       8.64       8.39       5.05
C       9.56      10.41      14.54
C       8.20       9.52       5.76
C       8.90       9.35      13.88
C       9.72       9.44       0.85
C       7.55       9.90      18.78
C       9.93       9.55      19.00
C       7.32       9.67       0.63
C       8.80       9.67      18.18
C       8.45       9.58       1.46
C       6.71       5.17       8.84
C       9.78      13.51       8.94
C       6.62       3.77       8.72
C       9.88      14.91       8.86
C       7.29       2.97       9.67
C       9.33      15.68       9.90
C       8.09       3.60      10.63
C       8.61      15.04      10.91
C       8.30       4.99      10.52
C       8.36      13.65      10.79
C      10.81       8.78       9.61
C       5.83       9.67      10.09
C       8.17       0.61       9.66
C       8.41      18.04       9.83
C      10.81      17.68       9.82
C       5.78       0.98       9.83
C       9.51      17.15       9.87
C       7.09       1.51       9.71
C       4.40       9.78      10.12
C      12.22       8.54       9.67
C       1.79       9.72      10.04
C      14.82       8.50       9.94
C      13.44       8.44       9.79
C       3.18       9.80      10.10
C       7.84      10.68       5.05
C       8.29       8.34      14.66
C       7.95      10.71       3.65
C       8.32       8.42      16.06
C       8.32       9.56       2.93
C       8.89       9.52      16.71
C       8.64       8.39       3.64
C       9.53      10.52      15.94
C       1.23       6.12       9.86
C      15.35      12.10       9.84
C       8.34       3.26      12.97
C       8.88      16.23      12.96
C      10.55       5.33      11.26
C       7.33      13.10      12.92
C      12.55      16.78      11.13
C       4.15       1.98      11.22
C       8.10       6.54       2.22
C      11.31      12.12      16.32
C       8.60       6.06       5.64
C      11.24      11.14      12.96
C       6.57       2.66       6.64
C       9.78      15.50       6.59
N       7.58       5.76       9.68
N       8.99      12.91       9.85
Cl       9.76       1.18       9.33
Cl       6.80      17.45       9.69
Cl       7.23      12.08       5.86
Cl       7.41       7.05      13.93
Cl       7.67      12.19       2.79
Cl       7.66       7.14      17.01
Cl      11.13       9.44       1.82
Cl       6.16      10.16      17.80
Cl      11.46       9.22      18.30
Cl       5.75       9.74       1.34
Cl       5.66       6.15       7.91
Cl      10.73      12.56       7.90
O       8.86       8.28      11.75
O       8.64      10.48       7.86
O       8.43      10.50      11.88
O       7.65       8.44       7.81
O      10.06       7.80       9.27
O       6.49      10.70       9.74
O      10.45       9.95       9.94
O       6.30       8.52      10.40
O       1.92       7.37       9.97
O      14.68      10.85      10.07
O       8.68       2.87      11.62
O       8.00      15.72      11.94
O       9.14       5.66      11.33
O       7.43      12.98      11.49
O      11.88      16.82       9.86
O       4.72       1.85       9.90
O       9.09       7.26       2.98
O      10.01      11.59      16.64
O       9.18       7.36       5.77
O      10.15      11.45      13.86
O       5.84       3.22       7.75
O      10.53      15.52       7.82
