99

Al       5.50       9.89      11.59
Al       2.15       9.89      11.61
Al       1.94      18.93      22.44
Al       5.28      18.92      22.41
H       5.87       4.40      15.48
H       2.00       3.40       5.10
H       6.13       4.44       4.28
H       2.31      17.33       4.46
H       0.36       5.89       6.13
H       3.13      15.81       7.07
H       5.39      11.99       5.94
H       4.60      13.08       7.08
H       4.13      13.11       5.36
H       3.89      14.93       4.15
H       4.97      15.63       2.93
H       4.89      13.87       3.14
H       1.87       6.52      16.16
H       1.12       4.60      18.50
H      -0.16       2.14      18.13
H       5.76       1.23      16.83
H       0.24       2.51      16.44
H       1.88       5.84       7.71
H       3.82      11.59      11.24
H       0.48       8.12      11.56
H       3.60      17.31      21.81
H       0.51       0.06      21.96
C       3.82       8.20      13.32
C       3.83       8.33       9.74
C       0.50      11.55       9.84
C       0.45      11.42      13.47
C       0.44      12.31      14.60
C       0.42      13.10      15.54
C       0.40      13.97      16.56
C       0.37      14.78      17.49
C       0.33      15.65      18.51
C       0.30      16.44      19.45
C       1.48      15.06       6.50
C       0.44      14.12       6.70
C       6.04      14.05       5.79
C       5.99      14.90       4.69
C       0.34      15.85       4.51
C       1.42      15.92       5.41
C       0.50      13.25       7.81
C       0.36      16.76       3.43
C       0.46      17.58       2.52
C       0.50      12.48       8.75
C       2.81       4.01      17.86
C       3.88       3.10      17.94
C       5.00       3.23      17.06
C       5.02       4.27      16.15
C       3.94       5.18      16.05
C       2.83       5.03      16.90
C       3.84       2.07      18.89
C       3.92       6.23      15.11
C       3.85       7.16      14.32
C       3.85       1.16      19.71
C       2.88       4.01       5.31
C       4.08       3.81       4.58
C       5.22       4.59       4.86
C       5.17       5.57       5.85
C       3.98       5.77       6.59
C       2.85       4.97       6.30
C       4.11       2.85       3.55
C       3.92       6.70       7.65
C       3.83       7.46       8.60
C       4.11       2.03       2.64
C       4.11       1.12       1.53
C       3.85       0.13      20.71
C       0.27      17.35      20.56
C       0.49      18.50       1.42
C       4.98      13.01       6.05
C       4.88      14.83       3.68
C       6.12       2.23      17.12
O       2.70       8.60      10.26
O       4.94       8.55      12.84
O       6.01      11.03      13.06
O       4.98       8.73      10.13
O       6.06      11.21      10.31
O       2.67       8.65      13.00
O       3.82      10.69      11.61
O       1.64      11.15      10.26
O       1.59      11.12      12.99
O       0.48       9.09      11.58
O       5.00      -0.26      21.12
O       2.96       0.80       1.07
O       1.64      18.91       1.05
O       2.71      -0.28      21.11
O       1.40      17.67      21.05
O       5.24       0.74       1.09
O       3.61      18.12      22.34
O       5.81      17.73      20.96
O       6.06      18.82       0.92
O       0.51      -0.80      22.40
O       2.45      16.81       5.28
O       6.21       6.39       6.14
O       2.52      15.12       7.38
O       1.74       5.85      16.86
O       1.76       3.90      18.72
O       1.70       5.15       7.02
