78

Zn      19.83       9.27      16.12
Zn       9.26       9.27       1.30
Zn      18.53      18.54      14.82
Zn      18.53      10.57       0.00
Zn       7.96      18.54       0.00
Zn       9.26      17.24      16.12
H      16.98      10.77       9.31
H       7.74      17.01       9.31
H      20.08       7.77       9.31
H      10.78      20.07       9.31
H      10.80      20.05       6.82
H      20.07       7.75       6.82
H       7.73      17.02       6.82
H      17.00      10.79       6.82
C      18.53      11.86      16.12
C       9.26      18.54      13.54
C       9.26      18.54       2.58
C      18.53       9.27       2.58
C      18.53       9.27      13.54
C      17.67      10.13       7.37
C       8.40      17.68       7.37
C      19.40       8.41       7.37
C      25.21      18.54      16.12
C      10.13      19.39       7.37
C      10.12      19.40       8.75
C      19.41       8.42       8.75
C       8.40      17.67       8.75
C      17.66      10.12       8.75
C       9.26      15.95       0.00
C      18.53       9.27       6.65
C       9.26      18.54       6.65
C       9.26      18.54       9.47
C      18.53       9.27       9.47
C       2.59       9.27       0.00
C      18.53       9.27       5.24
C       9.26      18.54       5.24
C       9.26      18.54      10.88
C      18.53       9.27      10.88
C      18.53       9.27      12.10
C       9.26      18.54      12.10
C       9.26      18.54       4.02
C      18.53       9.27       4.02
C       9.27       4.03       0.00
C      23.77      18.54      16.12
C       9.26      14.51       0.00
C       4.03       9.27       0.00
C       9.27       5.25       0.00
C      13.29       9.27       0.00
C      18.53      22.56      16.12
C       5.24       9.27       0.00
C      15.95      18.54      16.12
C       9.27       6.69       0.00
C      11.85       9.27       0.00
C      18.53      21.12      16.12
O      19.68      11.29      16.12
O      25.77      19.68      16.12
O      17.38      25.78      16.12
O      11.29      17.39      16.12
O       8.12       2.03       0.00
O       2.02      10.41       0.00
O      10.41      16.51       0.00
O      16.51       8.12       0.00
O      19.68       9.26      14.12
O       9.27      19.68      14.12
O      17.39       9.28      14.12
O       9.26      17.39      14.12
O       8.12      18.53       2.01
O      18.53      10.41       2.01
O      10.41      18.55       2.01
O      18.54       8.12       2.01
O      16.51      18.54      14.98
O      18.53      16.52      14.98
O      20.55      18.53      14.98
O      18.53      20.55      14.98
O      11.28       9.27       1.14
O       9.27       7.25       1.14
O       7.25       9.27       1.14
O       9.26      11.29       1.14
