144

Zn      -2.95       3.59       3.12
Zn       3.05       7.04      11.91
Zn      12.18       3.60       3.12
Zn     -12.08       7.07      11.99
Zn      -4.53       2.64       5.72
Zn       4.64       7.99       9.34
Zn      13.76       0.80       3.12
Zn     -13.65       9.85      11.92
H       5.23      -0.09      13.24
H       9.00       5.44       5.09
H      -2.44       7.21       1.09
H       2.54       3.40      13.92
H     -11.59       3.95      14.67
H      11.70       6.65       0.32
H       5.87      -4.29      13.95
H      -5.72      14.86       0.96
H      -9.14      -1.54      14.22
H       9.25      12.15       0.87
H     -10.65       0.34      13.63
H      -5.14      10.65       1.69
H      10.78      10.27       1.40
H      -1.89       4.17       8.55
H       2.00       6.47       6.47
H      -0.12       5.21       9.99
H       0.22       5.43       5.03
H      -4.50      -0.40       8.52
H       4.56      11.01       6.49
H      -1.78      -2.50      13.97
H       1.43      13.00       1.13
H       2.70      -3.77      12.88
H      -4.51      -2.44       9.99
H      -3.38      11.25       1.07
H       0.85      11.34      10.63
H     -10.07      13.50       3.78
H       4.55      13.05       5.03
H       0.80      -2.97      14.68
H      -0.80      13.68       0.48
H      -7.13       4.16       8.55
H       7.23       6.42       6.58
H      -8.90       5.14      10.04
C      11.21       1.21       1.70
C      -9.35      15.38       1.27
C       1.06      10.04      14.24
C      -0.95       0.57       0.81
C      -8.37      14.78       0.46
C       8.48      -4.17      14.60
C      -1.04       4.68       8.11
C       1.14       5.97       6.92
C      -0.06       5.26       8.91
C       0.16       5.39       6.12
C       1.03       5.91       8.31
C     -11.13       9.47      13.40
C      -0.94       4.75       6.71
C      -4.54      -1.40       8.09
C       4.60      12.01       6.92
C      -1.99       4.13       5.85
C       2.08       6.52       9.17
C      -4.55      -2.52       8.90
C       4.60      13.14       6.11
C       4.64      12.15       8.32
C      13.74      -1.53       6.69
C       0.43      -3.98      14.86
C     -10.20      -1.73      14.03
C      -0.39      14.68       0.28
C      -0.53      -4.54      14.02
C       0.58      15.23       1.12
C     -10.06      10.09      14.25
C      10.11       0.60       0.88
C      -8.00       4.66       8.13
C       8.10       5.92       7.00
C      -8.98       5.20       8.96
C       9.08       5.38       6.17
C     -10.09       5.84       8.39
C      10.31      12.33       1.01
C      -8.12       4.75       6.74
C      -3.35       7.55       0.61
C       3.45       3.06      14.42
C     -12.50       3.38      14.84
C      12.60       7.24       0.18
C      -4.54       5.61       1.66
C       4.62       5.03      13.38
C       4.63       3.80      14.23
C      13.79       6.83       0.80
C      13.75      -0.32       5.83
C       7.27      -0.68      13.70
C       4.64      10.93       9.19
C      -7.07       4.17       5.86
C     -11.14       6.44       9.27
C      -2.01       1.19       1.69
C       2.12       9.43      13.36
C       5.41      -2.21      13.56
C      -5.26      12.79       1.31
C       6.27      -3.27      13.88
C      -6.14      13.86       1.05
C       7.63      -3.04      14.14
C      -7.15      11.28       1.30
C      -7.51      13.64       0.89
C      -0.96      -3.78      12.79
C       1.04      14.46       2.32
C       3.96      -2.43      13.32
C      -3.80      13.12       1.40
C       9.81      -4.16      12.46
C      -9.61      14.96       2.69
C       5.92      -0.91      13.48
C      -5.78      11.50       1.45
C       9.47      -4.76      13.79
O      13.77       2.65       3.75
O       3.05       7.11       8.59
O      12.20       0.46       1.96
O     -12.07      10.25      13.02
O      -1.86       4.28       4.59
O       1.93       6.41      10.44
O      12.65       5.13       1.97
O     -12.57       5.60      13.20
O      -4.62       0.81       6.42
O       4.71       9.80       8.60
O      11.08       4.28       4.60
O     -13.67       7.99      11.31
O     -10.98       6.35      10.53
O      15.33       0.44       1.97
O     -15.23      10.19      13.06
O      -6.08       3.60       6.44
O       6.20       7.01       8.68
O      -1.82       2.40       2.04
O       1.93       8.22      13.01
O      -9.79      11.80      11.66
O      -1.60      -2.60      13.02
O      10.13      -1.03       3.45
O      -3.40       5.16       2.01
O       1.44      13.18       2.09
O       3.11      -1.56      13.37
O       3.66      -3.73      13.05
O      -3.37      14.25       1.53
O      -2.92      12.08       1.31
O      -8.16      -3.01      12.29
O       0.58      10.88      11.45
O      -0.48      -0.21       3.63
O      -9.92      13.65       2.82
O       3.49       5.41      12.92
O      13.82      -0.51       4.57
O     -13.76      11.13      10.45
O      11.04       2.43       2.02
O     -10.99       8.23      13.14
O      -2.94       3.51       6.45
