154

Zn       5.61       5.96      13.23
Zn       5.62       8.72      13.00
Zn       5.76       9.69      23.97
Zn       5.77       6.92      24.23
H       3.79       1.24      14.44
H       6.47      13.47      11.04
H       4.93      10.81      14.88
H       4.92      13.31      15.09
H       7.23       3.85      12.06
H       7.30       1.35      11.88
H       3.89       6.66      21.31
H       3.67       6.15      16.38
H       7.43       9.04      17.17
H       7.54       9.29      19.66
H       5.38       5.04       6.30
H       5.32       9.46       4.54
H       5.36       5.28       1.90
H       5.43       5.13       4.36
H       5.46       9.21       8.95
H       5.47       9.37       6.49
H       2.70       9.03      11.19
H       8.73       8.80      10.74
H       9.79       5.89      14.41
H       1.33       5.95      14.57
H       4.15      14.45      22.67
H       6.33       2.15      26.22
H       5.21       4.84      22.26
H       5.11       2.35      22.06
H       7.32      11.75      25.30
H       7.47      14.24      25.45
H       2.88       6.50      25.95
H       8.75       5.57       0.17
H       9.91       9.70      22.84
H       1.45       9.63      22.63
H       1.73       4.10      20.42
H       1.98       5.40      21.62
H       0.77       5.58      20.32
H       0.66       5.36      17.82
H       1.77       4.84      16.53
H       1.58       3.86      18.00
H       1.52      11.56       9.13
H       2.88      10.45       9.38
H       1.70      10.15       8.09
H      10.22       9.99       7.84
H       8.76      10.14       8.85
H      10.01      11.41       8.87
H       1.54       2.77       1.68
H       2.92       3.84       1.37
H       1.80       4.18       2.71
H      10.32       4.35       3.03
H       8.83       4.24       2.07
H      10.05       2.95       2.00
C       5.43       7.09      10.52
C       8.20       7.27      12.87
C       5.77       7.58      15.72
C       3.03       7.43      13.18
C       5.33       7.40       0.33
C       8.35       8.31      24.41
C       5.97       8.14      21.50
C       3.18       8.14      23.97
C       4.67       3.14      13.95
C       4.59       1.75      13.91
C       6.09      11.56      11.94
C       6.13      12.95      11.93
C       5.24      11.46      14.06
C       5.24      12.84      14.16
C       6.50       3.21      12.56
C       6.52       1.83      12.47
C       5.55       1.07      13.15
C       5.69      13.62      13.08
C       5.88       7.98      20.01
C       4.86       7.16      19.44
C       6.78       8.65      19.20
C       3.86       6.54      20.23
C       2.83       5.81      19.68
C       5.76       7.71      17.21
C       6.72       8.51      17.80
C       4.79       7.02      18.01
C       3.73       6.26      17.47
C       2.76       5.66      18.25
C       5.43       7.08       9.02
C       5.32       7.41       1.82
C       5.42       5.93       8.22
C       5.40       5.98       6.84
C       5.31       8.56       2.62
C       5.34       8.51       4.01
C       5.35       6.19       2.51
C       5.39       6.11       3.89
C       5.45       8.30       8.34
C       5.45       8.38       6.96
C       5.41       7.22       6.16
C       5.38       7.28       4.68
C       1.54       7.41      13.03
C       0.89       8.20      12.03
C       0.81       6.57      13.84
C       1.62       8.99      11.10
C       1.00       9.69      10.08
C       9.69       7.31      12.82
C      10.37       6.53      13.75
C      10.42       8.14      11.91
C       9.81       8.85      10.85
C      10.54       9.61       9.95
C       4.92      12.52      23.24
C       4.89      13.91      23.26
C       6.11       4.07      25.29
C       6.08       2.68      25.31
C       5.43       4.19      23.10
C       5.38       2.81      23.01
C       6.65      12.40      24.74
C       6.72      13.78      24.82
C       5.82      14.57      24.07
C       5.70       2.02      24.13
C       1.69       8.16      24.16
C       1.06       7.36      25.16
C       0.94       9.01      23.36
C       1.80       6.55      26.06
C       1.03       4.65       0.74
C       9.85       8.27      24.43
C      10.51       9.05      23.49
C      10.59       7.43      25.32
C       9.83       5.51       0.04
C      10.58       4.75       0.92
C       1.78       5.19      20.56
C       1.64       4.89      17.62
C       1.82      10.50       9.12
C       9.84      10.32       8.82
C       1.87       3.82       1.67
C       9.91       4.04       2.06
N       5.57       3.87      13.30
N       5.67      10.82      12.95
N       5.76      11.77      23.94
N       5.79       4.82      24.24
O       5.71       6.01      11.14
O       5.16       8.21      11.06
O       7.58       8.36      12.63
O       7.65       6.16      13.19
O       5.96       8.65      15.04
O       5.60       6.42      15.22
O       3.60       6.30      13.10
O       3.60       8.55      13.38
O       5.75       9.67      26.06
O       5.26       7.46      26.14
O       7.73       7.22      24.64
O       7.80       9.43      24.11
O       6.12       7.08      22.20
O       5.88       9.33      21.95
O       3.76       9.27      24.01
O       3.75       7.01      23.80
F       3.77       3.81      14.68
F       6.51      10.90      10.84
F       5.40       4.69       8.78
F       5.26       9.80       2.06
F       4.04      11.87      22.46
F       6.30       3.52       0.06
