134

Zn       6.29       5.66      11.03
Zn       3.45       5.64      11.15
Zn       3.51       5.74      22.04
Zn       6.35       5.80      22.13
H       1.16       6.82      14.05
H       1.21       8.19      12.91
H       8.49       8.22      12.86
H       8.46       6.82      13.97
H       1.69       9.83      10.28
H       1.75      10.00      12.06
H       1.81       1.36      11.82
H       1.88       1.18      10.04
H       6.68       3.72      19.05
H       8.08       2.12      17.78
H       6.66       3.78      14.06
H       8.07       2.16      15.29
H       7.93       4.92       4.12
H       7.86       6.69       4.32
H       7.92       6.38       6.83
H       7.89       4.61       6.58
H       8.47       6.88      19.23
H       8.56       8.32      20.29
H       1.27       8.24      20.18
H       1.18       6.82      19.10
H       7.83       9.90       0.72
H       7.95      10.18      21.14
H       8.11       1.55      21.36
H       7.93       1.26       0.95
H       7.50       4.39       8.95
H       9.04       3.94       8.36
H       2.32       3.59       9.81
H       0.81       3.02       9.22
H       7.38       2.39      11.40
H       8.12       0.88      11.77
H       7.23       8.89      10.77
H       8.00      10.40      10.50
H       2.39       5.93       7.84
H       1.67       6.48       6.38
H       2.35       5.91       3.16
H       1.55       5.45       4.63
H       2.28       3.74       1.45
H       0.80       3.54       2.37
H       7.38       4.28       1.90
H       8.61       3.10       1.81
H       2.51       2.46      21.86
H       1.83       0.97      21.36
H       2.44       8.94      22.02
H       1.53      10.28       0.32
C       4.81       8.25      11.03
C       4.96       5.68      13.66
C       4.93       2.99      11.10
C       4.82       5.57       8.42
C       4.89       8.37      22.00
C       4.99       5.62      19.51
C       4.97       3.11      22.18
C       4.78       5.75       2.55
C       0.64       6.27      11.97
C       9.08       4.85      10.16
C       9.08       6.30      11.92
C       0.71       4.72      10.31
C       0.72       7.23      13.13
C       8.95       7.25      13.09
C       4.85       9.73      11.06
C       4.98       1.51      11.08
C       3.67      10.49      11.08
C       6.20       0.78      11.13
C       3.81       0.74      11.03
C       6.05      10.48      11.05
C       2.16      10.38      11.11
C       2.30       0.82      11.00
C       5.02       5.59      18.01
C       5.86       4.69      17.29
C       4.22       6.46      17.30
C       6.68       3.74      17.96
C       7.46       2.85      17.25
C       5.02       5.63      15.16
C       4.22       6.48      15.89
C       5.86       4.70      15.85
C       6.67       3.77      15.15
C       7.46       2.87      15.84
C       4.76       5.78       4.03
C       4.77       5.62       6.94
C       5.94       5.70       4.79
C       3.56       5.77       6.21
C       5.94       5.59       6.17
C       3.55       5.82       4.78
C       7.45       5.73       4.68
C       7.45       5.57       6.25
C       9.13       6.42      21.29
C       0.64       4.76       0.74
C       0.69       6.35      21.21
C       9.00       4.82       0.81
C       8.99       7.33      20.09
C       0.77       7.27      20.01
C       4.82       9.85      22.00
C       4.94       1.63      22.13
C       5.99      10.64      22.05
C       3.74       0.88      22.03
C       6.12       0.88      22.13
C       3.60      10.58      22.00
C       7.50      10.55      22.07
C       7.63       0.99      22.19
N       1.40       5.49      11.17
N       8.35       5.62      11.00
N       8.40       5.72      22.18
N       1.45       5.60      22.03
N       8.47       4.14       9.18
N       1.36       3.82       9.52
N       7.45       1.39      11.20
N       7.30       9.88      11.02
N       2.31       5.83       6.83
N       2.31       5.96       4.18
N       1.29       3.94       1.59
N       8.38       4.09       1.80
N       2.48       1.45      21.98
N       2.36       9.96      21.94
O       5.90       7.63      10.74
O       3.69       7.68      11.27
O       3.84       5.43      13.14
O       6.05       5.95      13.06
O       3.81       3.57      10.87
O       6.01       3.64      11.35
O       5.94       5.31       8.98
O       3.75       5.80       9.09
O       3.79       7.73      21.78
O       5.90       7.72       0.02
O       6.08       5.88      20.10
O       3.86       5.39      20.05
O       6.08       3.70      21.99
O       3.75       3.62       0.23
O       3.69       5.96       1.90
O       5.91       5.51       1.98
F       3.42       7.39      15.28
F       3.43       7.36      17.94
