91

Zn       8.57       9.25      10.82
Zn       8.51      11.35       8.40
Zn      10.66       9.03       8.36
Zn      10.94      11.32      10.60
H      15.07      10.74      11.14
H      14.67       9.38       7.08
H      17.31      11.00      12.14
H       4.66      10.89      11.94
H       4.31       9.98       7.75
H      10.26       8.19       4.27
H      10.33       4.88       7.91
H       8.68      12.19       4.25
H       8.73       5.17      11.90
H      10.19      12.55      14.66
H      10.09      15.44      11.49
C       9.52      10.20       5.92
C       9.55       6.67       9.77
C       9.94      10.37      13.19
C       9.82      13.79       9.43
C      13.25      10.07       9.28
C       6.10      10.39       9.71
C      14.74      10.08       9.13
C       4.62      10.44       9.82
C       2.65      10.75      11.19
C       4.02      10.71      11.08
C       3.84      10.18       8.70
C       2.43      10.12       8.81
C      16.94      10.45      10.08
C      15.53      10.46      10.20
C      15.32       9.70       7.90
C      16.68       9.74       7.74
C      10.07      10.40      14.68
C       9.94      15.28       9.34
C      10.18      11.65      15.28
C      10.07      15.98      10.54
C      10.25      11.78      16.66
C      10.15      17.36      10.55
C      10.28      10.64      17.49
C      10.17      18.09       9.34
C      10.13       9.38      16.89
C      10.01      17.39       8.13
C      10.04       9.24      15.49
C       9.90      15.99       8.13
C       9.73       8.98       2.34
C       9.81       3.01       8.85
C       9.86       9.04       3.72
C       9.93       4.40       8.80
C       9.22      10.07       1.61
C       9.31       2.37      10.00
C       9.46      10.18       4.42
C       9.51       5.18       9.88
C       8.99      11.29       3.72
C       9.05       4.57      11.04
C       8.92      11.25       2.34
C       9.01       3.19      11.11
Br       9.95       7.52      14.74
Br       9.78      15.06       6.49
Br       2.29       9.27       6.05
Br      10.33       7.41       1.46
Br      10.42       2.03       7.35
Br      10.11       7.86      18.02
Br      10.00      18.36       6.52
N      10.43      10.70      18.90
N      10.33      19.50       9.27
N       9.06      10.03       0.20
N       9.16       0.96      10.09
N      10.12      13.15      17.20
N      10.04      18.02      11.87
N       8.57      12.51       1.65
N       8.68       2.60      12.44
O       9.68      10.25       9.55
O       8.98      11.19       6.50
O       8.83       7.32      10.60
O       9.07       9.60      12.70
O       8.82      13.25       8.87
O      10.29       7.16       8.85
O      10.10       9.21       6.48
O      10.73      13.22      10.12
O      10.70      11.18      12.55
O      12.59       9.42       8.40
O       6.64      10.83       8.64
O       6.72       9.90      10.71
O      12.77      10.72      10.27
O       9.30      13.30      18.12
O      10.77      14.04      16.65
O       9.20      18.92      11.97
O      10.72      17.55      12.78
O       7.71      13.22       2.18
O       9.22      12.79       0.63
O       7.81       3.18      13.10
O       9.35       1.63      12.80
