86

Al       3.95      29.02      25.13
Al       0.02      14.51      16.76
H       2.82      16.49      13.07
H       2.74      16.53      10.57
H       1.23      12.49      10.57
H       1.17      12.52      13.07
H       1.23      16.53       6.19
H       1.15      16.50       3.69
H       2.80      12.52       3.69
H       2.74      12.49       6.19
H       2.82      16.72      20.32
H       2.74      18.86      21.60
H       1.23      20.88      18.10
H       1.17      18.70      16.88
H       1.23      22.65      23.79
H       1.16      24.84      25.01
H       2.80      26.82      21.57
H       2.74      24.67      20.29
H       2.82      10.32      16.88
H       2.74      37.17      18.10
H       1.24      39.19      21.60
H       1.17      12.31      20.32
H       1.23      33.37      20.29
H       1.16      31.23      21.57
H       2.80      33.21      25.01
H       2.74      35.39      23.79
C       1.97      30.81      24.10
C       1.97      14.51       2.06
C       1.97      27.24      24.10
C       2.00      14.51      14.70
C       2.00      16.30      17.78
C       2.00      12.73      17.79
C       2.00      14.51      13.21
C       2.45      15.63      12.51
C       2.42      15.65      11.12
C       1.99      14.51      10.40
C       1.56      13.37      11.12
C       1.53      13.39      12.51
C       1.98      14.51       8.99
C       1.98      14.51       7.77
C       1.98      14.51       6.35
C       1.55      15.65       5.64
C       1.52      15.63       4.25
C       1.97      14.51       3.54
C       2.44      13.39       4.25
C       2.41      13.37       5.63
C       2.00      17.58      18.53
C       2.45      17.63      19.85
C       2.42      18.82      20.56
C       1.99      20.01      19.93
C       1.56      19.96      18.59
C       1.53      18.75      17.91
C       1.99      21.24      20.64
C       1.99      22.30      21.25
C       1.98      23.52      21.96
C       1.55      23.57      23.30
C       1.52      24.78      23.98
C       1.98      25.95      23.36
C       2.44      25.91      22.04
C       2.41      24.71      21.33
C       2.00      11.44      18.53
C       2.46      39.30      17.91
C       2.42      38.09      18.59
C       1.99      38.03      19.93
C       1.56      39.22      20.56
C       1.54      40.42      19.85
C       1.99      36.81      20.64
C       1.99      35.75      21.25
C       1.99      34.52      21.96
C       1.55      33.34      21.33
C       1.52      32.14      22.04
C       1.98      32.09      23.36
C       2.44      33.26      23.98
C       2.41      34.47      23.30
O       1.04      27.43      24.95
O       1.04      29.98      23.84
O       1.03      15.15       1.47
O       2.90      28.08      23.84
O       2.90      13.86       1.46
O       2.90      30.62      24.96
O       1.08      13.57      18.05
O       1.08      13.86      15.29
O       1.08      16.11      16.92
O       2.94      12.92      16.94
O       2.94      15.47      18.05
O       2.94      15.15      15.28
