98

Al       0.03      28.92      25.04
Al       0.03      14.46      16.70
H       3.38      16.39      13.09
H       3.51      16.38      10.59
H       0.94      12.85      12.97
H       0.94      16.06       3.72
H       3.37      12.52       3.61
H       3.51      12.54       6.10
H       3.38      16.62      20.17
H       3.51      18.79      21.41
H       0.94      18.48      17.17
H       0.94      24.89      24.57
H       3.37      26.76      21.56
H       3.51      24.59      20.33
H       3.38      10.37      16.82
H       3.51      37.13      18.09
H       0.94      12.04      19.95
H       0.94      31.34      21.79
H       3.37      33.01      24.92
H       3.51      35.16      23.65
H       0.89      12.73       9.33
H       0.26      12.06      10.76
H       0.89      16.19       7.36
H       0.26      16.86       5.94
H       0.89      21.70      18.87
H       0.26      20.80      17.59
H       0.89      21.68      22.86
H       0.26      22.58      24.15
H       0.89      37.87      21.88
H       0.26      39.43      21.74
H       0.89      34.42      19.86
H       0.26      32.86      20.00
C       2.05      30.77      24.15
C       2.05      14.30       2.05
C       2.05      27.22      23.88
C       2.05      14.61      14.65
C       2.05      16.16      17.85
C       2.05      12.61      17.59
C       2.15      14.62      13.16
C       2.88      15.62      12.50
C       2.95      15.61      11.12
C       2.35      14.58      10.37
C       1.62      13.55      11.04
C       1.52      13.60      12.44
C       2.43      14.54       8.96
C       2.43      14.38       7.74
C       2.35      14.34       6.33
C       1.62      15.37       5.65
C       1.52      15.32       4.26
C       2.15      14.30       3.53
C       2.87      13.29       4.19
C       2.95      13.31       5.57
C       2.15      17.44      18.60
C       2.88      17.51      19.80
C       2.95      18.71      20.48
C       2.35      19.88      19.96
C       1.62      19.81      18.74
C       1.52      18.58      18.08
C       2.43      21.12      20.63
C       2.43      22.25      21.11
C       2.35      23.50      21.78
C       1.62      23.57      23.00
C       1.52      24.80      23.66
C       2.15      25.94      23.14
C       2.87      25.87      21.94
C       2.95      24.66      21.26
C       2.15      11.32      18.33
C       2.88      39.17      17.78
C       2.95      37.97      18.49
C       2.35      37.84      19.76
C       1.62      38.93      20.31
C       1.52      40.12      19.57
C       2.43      36.63      20.50
C       2.43      35.66      21.24
C       2.35      34.46      21.98
C       1.62      33.36      21.43
C       1.52      32.18      22.17
C       2.15      32.06      23.41
C       2.87      33.13      23.96
C       2.95      34.32      23.25
N       1.05      12.52      10.32
N       1.05      16.40       6.38
N       1.05      20.95      18.20
N       1.05      22.42      23.54
N       1.05      38.82      21.57
N       1.05      33.47      20.17
O       1.07      27.35      24.70
O       1.07      30.00      23.86
O       1.07      14.94       1.53
O       2.95      28.10      23.68
O       2.95      13.68       1.39
O       2.95      30.51      25.02
O       1.08      13.38      17.88
O       1.08      13.97      15.17
O       1.08      16.02      17.04
O       2.96      12.87      16.72
O       2.96      15.28      18.06
O       2.96      15.23      15.30
