118

Zn       1.32       9.28       4.45
Zn       6.75      -1.81       6.06
Zn       4.20      -2.82       7.85
Zn      -1.27       8.28       6.14
H      -0.27      10.08       1.78
H       9.91      -0.77       5.47
H      11.19       5.37       1.75
H      12.01       3.06       0.32
H      -4.23      -2.17      10.55
H      -5.04       0.15      11.99
H       9.20       9.58       3.09
H       0.88      -5.18      12.11
H       6.79       9.69       2.91
H       4.29       1.01       1.75
H      -2.76      -0.50       6.71
H      -4.17       2.82      11.48
H      -2.61       0.62       5.32
H      -2.56       3.25      12.13
H      -0.28      -0.61       6.90
H      -3.67       4.13       9.41
H      -0.11       0.51       5.52
H      -2.07       4.56      10.07
H       2.23       5.03       9.72
H       3.17       2.79       9.82
H       2.02      -1.18       6.17
H      -2.98       6.32       8.20
H       6.35       3.96       5.58
H       3.76       5.42       4.78
H       6.47       1.48       6.50
H       3.69       8.07       6.20
H      -2.51       6.12       3.92
H       5.70      -3.68      10.54
H       3.10       0.26       8.94
H       0.28       6.43       8.34
H       1.04       7.33       1.77
H       9.09      -2.25       8.25
H      -3.57       8.98       3.97
H       2.44      -3.94      10.54
H       5.15      -0.01       3.86
H       4.51       9.32       3.42
H       7.16      -0.65      11.69
H      -0.20       3.86       0.60
C      -0.23      10.91       2.48
C       9.72      -1.73       5.00
C       1.42      -2.88       4.81
C      -3.33       7.82       9.84
C       4.65       1.49       7.84
C       2.36       6.79       7.53
C      -0.94       6.41       2.33
C       7.74      -2.92       9.93
C      11.94       5.35       0.95
C      12.39       4.08       0.16
C       7.99      -1.29      12.00
C      -1.03       4.51       0.30
C       8.43      -2.58      11.19
C      -1.48       5.80       1.11
C      -4.98      -2.14      11.35
C      -5.43      -0.86      12.13
C      -0.72      -1.56       4.94
C      -3.74       5.66      11.03
C       0.05      -2.60       4.40
C      -3.87       7.05      10.95
C       8.69      10.40       3.59
C       1.08      -6.26      12.11
C       2.19      -2.16       5.74
C      -2.90       7.32       8.60
C       7.30      10.46       3.48
C       4.67       0.47       0.88
C      12.05      -2.46       4.17
C      -0.57      12.98       1.00
C      12.81      -1.50       4.83
C      -4.00       4.93      12.19
C      -2.22      -0.31       5.77
C      -3.45       3.64      11.62
C      -0.65      -0.38       5.89
C      -3.14       4.47      10.31
C       4.08       5.11       6.94
C       4.61       3.83       6.99
C       3.15       5.61       7.85
C       4.27       2.89       7.96
C       2.90       4.72       8.93
C       3.44       3.42       8.98
C       5.25       3.92       5.60
C       4.58       5.38       5.52
C       5.69       0.96       7.06
C       2.71       7.80       6.61
C      -1.56       6.53       3.58
C       6.41      -3.33       9.79
C       3.99       0.34       8.32
C       0.98       6.99       7.72
C       0.25       7.14       2.49
C       8.13      -2.60       8.62
C      -3.37       9.83       4.61
C       2.56      -4.71       9.79
C       5.24      -1.04       3.55
C       4.25      10.23       3.94
C      -0.47      12.28       2.27
C      10.60      -2.58       4.31
C       4.75       3.01       4.60
C       5.50       6.46       5.26
N       0.11      10.70       3.77
N       8.48      -2.25       5.03
N       3.28      -2.88       6.08
N      -2.33       8.30       7.87
N       5.65      -0.38       7.07
N       1.62       8.51       6.27
N      -0.81       7.28       4.42
N       6.04      -3.25       8.49
N       4.59      -0.77       7.85
N       0.55       8.00       6.95
N       0.32       7.66       3.73
N       7.10      -2.79       7.77
N      -2.27       9.85       5.39
N       3.16      -4.43       8.61
N       5.60      -2.00       4.43
N       2.99      10.44       4.37
N       4.30       2.30       3.79
N       6.26       7.32       5.02
