76

Zn       7.79       8.90       6.61
Zn       7.72       6.10       6.51
H       3.28       6.78       4.39
H      12.31       8.93       4.71
H      10.83      12.29       4.67
H       8.55       2.03       3.62
H       5.92       4.83       8.03
H      13.85       9.85       6.94
H      12.21       8.25       8.65
H       3.18       6.11       8.32
H       1.64       5.18       6.11
H       6.35       5.49      10.72
H       5.11       2.49       0.01
H       8.26       9.30      10.77
H       8.73      10.93      11.73
H       9.53      10.50       0.36
H      10.05      12.95      11.99
H       4.65       3.88       3.21
H       4.22       3.22       1.74
H       8.60       9.64       2.43
H       6.08       5.71       3.43
H       6.55      10.73       8.55
H       4.18       3.47       9.14
H       6.90      13.09       9.37
H       9.47      11.11       5.67
H       8.84       4.34       4.55
C       7.66       7.74       3.97
C       7.23       6.65       0.32
C       7.05       6.66       1.74
C      10.34       7.40       6.46
C       7.47       8.69      12.70
C       6.03       4.45       0.25
C       5.74       4.59       1.65
C       6.27       5.64       2.36
C       7.72       8.54      11.33
C       6.64       6.38      11.28
C       7.61       7.75       2.47
C       2.78       6.73       7.51
C       7.48      12.69       8.54
C       8.13       3.64       5.00
C       7.96       2.35       4.48
C       7.63       7.34       9.15
C       7.03       1.50       5.06
C       6.27       1.96       6.16
C       6.49       3.29       6.62
C       9.20      12.95       6.83
C       8.45      13.50       7.91
C       4.77       3.05       8.32
C       1.95       6.22       6.29
C       5.72       3.81       7.71
C       8.92      11.62       6.46
C       7.28      11.40       8.10
C       5.15       7.63       6.59
C      12.71       8.31       5.52
C       2.83       7.10       5.33
C       3.66       7.62       6.56
C      13.54       8.82       6.75
C      12.66       7.93       7.70
C      11.83       7.42       6.46
C       6.35       6.51      12.63
C       7.33       7.41      10.62
C       8.21       8.82       1.82
C       8.35       8.83       0.42
C       8.60      10.93      12.81
N       7.99      10.88       7.07
N       7.43       4.09       6.04
N       9.64      13.13      12.90
N       4.98       3.60       2.30
O       7.47       8.85       4.58
O       7.95       6.63       4.52
O       9.78       8.53       6.26
O       9.75       6.29       6.69
O       8.09       8.38       8.60
O       7.39       6.23       8.55
O       5.76       8.70       6.95
O       5.71       6.54       6.24
