100

Zn       7.55      12.41       1.55
Zn       7.90       4.30      12.84
Zn       1.83       0.82       1.44
Zn      14.14       1.15       1.20
Zn      15.36      11.32       7.28
Zn      15.67       9.15       9.60
Zn      16.99       8.62       6.74
Zn      13.78       8.54       7.04
H      18.97      11.87      10.63
H      18.70      14.99      13.61
H      10.88      12.33       8.78
H      23.65      14.15       5.98
H      15.26      11.06       2.72
H      18.13      12.89       0.07
H      14.68       4.66       9.37
H      19.95      17.07      12.58
H      20.53      10.04       8.66
H      23.19       8.49      11.69
H      15.36       8.46       2.71
H      16.22       5.03       0.23
C      19.03      13.44      12.13
C      18.42      12.66      11.14
C      17.08      12.92      10.85
C      16.95      14.60      12.38
C      18.28      14.41      12.79
C      16.15      15.68      13.05
C      16.36      12.00       9.90
C      24.92      13.29       7.52
C      10.53      12.50       7.77
C      11.18      11.95       6.66
C       9.74      12.92       5.19
C      24.51      13.52       6.20
C       9.34      13.15       3.75
C      12.45      11.15       6.88
C      16.59      11.91       1.24
C      16.26      11.40       2.50
C      17.28      11.36       3.46
C      18.79      12.33       2.06
C      17.86      12.43       1.02
C      20.17      12.91       1.86
C      16.95      10.86       4.84
C      13.61       3.62      10.95
C      13.91       4.72      10.15
C      13.21       5.90      10.39
C      11.93       4.94      12.01
C      20.19      17.90      11.93
C      10.73       5.03      12.92
C      13.61       7.14       9.63
C      21.97       9.43      10.17
C      20.75       9.37       9.49
C      19.82       8.41       9.90
C      21.24       7.55      11.46
C      22.24       8.49      11.17
C      21.56       6.47      12.46
C      18.48       8.39       9.22
C      15.80       6.86       1.32
C      15.49       7.39       2.57
C      15.41       6.51       3.65
C      15.78       4.69       2.33
C      15.97       5.48       1.19
C      15.85       3.20       2.16
C      15.27       7.10       5.03
N      16.35      13.89      11.42
N      10.81      12.14       5.39
N      18.54      11.78       3.25
N      12.21       6.02      11.28
N      20.04       7.52      10.88
N      15.53       5.18       3.55
Cl      20.67      13.17      12.55
Cl      24.05      14.00       8.83
Cl      23.06      16.32      14.02
Cl      22.00      16.30      10.71
Cl      23.13      10.64       9.77
Cl      23.65      12.30      14.00
O      23.24      14.19       0.75
O      15.69      16.60      12.31
O       8.39      11.17       0.28
O      15.93      10.92      10.43
O      16.28      12.35       8.68
O       9.84      14.17       3.18
O       8.51      12.32       3.27
O      12.37       9.89       6.75
O      13.47      11.85       7.18
O      20.20      14.16       1.63
O      21.15      12.10       1.94
O      17.50       9.77       5.21
O      16.12      11.58       5.49
O       3.28       0.52       0.13
O       9.61       5.18      12.33
O      13.31       7.18       8.39
O      14.27       8.00      10.30
O      21.35       6.72      13.69
O      22.06       5.41      11.97
O      18.51       8.47       7.94
O      17.45       8.33       9.96
O      16.94       2.74       1.69
O      14.81       2.53       2.45
O      14.17       7.69       5.29
O      16.29       7.02       5.79
O      15.45       9.39       7.68
