168

Zn       1.47       3.01       8.56
Zn       3.84       7.41       9.26
Zn       1.11       6.67       7.02
Zn       4.11       4.38      10.53
H       7.07       8.54      10.03
H       6.14       5.98       7.05
H       3.04       0.21       8.34
H       7.33       4.21      10.22
H       2.58       3.92       3.79
H       0.41       0.79      10.79
H       2.69      10.11      10.44
H      -1.91       6.78       7.65
H       5.48       5.37      13.32
H       3.78       9.05      11.83
H      -0.47       4.17      10.78
H       3.13       3.16      13.20
H      -0.73       9.08       8.01
H      -2.01      10.52       9.19
H       1.52      12.00      11.21
H       8.34      -1.91      12.44
H       6.75      -0.30      11.40
H       3.21      -1.76       9.40
H       2.81      -4.21       9.23
H      -4.09      11.90       9.15
H      -2.95       8.03       9.63
H      -3.17       4.00      11.14
H      -5.26       3.19      12.21
H      11.34       3.36      12.34
H       9.27       4.51      11.58
H       9.48       8.53      10.02
H       3.85       0.40      13.67
H       4.66       8.00       3.34
H       6.73       4.39       4.46
H       8.53       5.88       0.05
H      -0.43      -1.15      15.56
H       5.83       8.01       1.19
H       0.43      -1.63      17.42
H       7.92       4.40       2.28
H       3.86       2.63       2.70
H       7.25       6.47      13.98
H      -2.24      -7.33      16.64
H      -5.78      16.44       1.97
H     -10.17       7.47      15.48
H       1.66      -0.80       4.11
H     -10.43       8.17      17.69
H       4.24       1.52       0.55
H       9.33      -4.18      12.37
H      -7.41       9.73       9.95
H      -4.95       9.54       9.80
H       5.97       1.91      11.00
C       1.65       1.67       5.96
C       6.92       7.46      10.01
C       3.38       6.44       5.36
C       5.19       1.70      10.28
C       5.15       6.12       6.62
C       3.68       0.86       8.91
C       7.04       5.25      10.12
C       2.27       3.29       4.63
C       2.21       1.88       4.66
C       7.81       6.42      10.34
C       4.77       6.19       5.27
C       4.64       0.48       9.87
C       1.08       1.53      11.22
C       1.97       9.67       9.75
C      -1.36       6.11       8.30
C       4.95       6.16      12.80
C       4.07       8.03      12.05
C      -0.63       4.77       9.89
C       2.50       2.73      12.42
C       0.23       9.15       8.52
C       1.74       1.55      12.46
C       0.64      10.03       9.53
C      -1.68       5.65       9.58
C       5.03       7.56      12.96
C      -1.49      11.30       9.75
C      -0.14      11.14      10.09
C       0.48      12.12      10.89
C       7.71      -5.05      11.20
C       6.39      -4.83      10.70
C      -2.18      12.49      10.03
C       8.36      -3.98      11.90
C       7.81      -2.73      11.94
C       6.57      -2.44      11.28
C       5.82      -3.53      10.74
C       4.56      -3.28      10.12
C       3.81      -4.39       9.62
C      -3.52      12.73       9.58
C       6.13      -1.13      11.05
C       4.97      -0.87      10.30
C       4.16      -1.95       9.92
C      -3.53       7.23      10.09
C      -2.93       5.97      10.27
C      -3.64       4.97      10.96
C      -4.98       5.15      11.31
C      -5.63       6.38      10.97
C      -4.87       7.46      10.42
C      -5.77       4.10      11.88
C      -7.13       4.20      11.95
C      -7.82       5.36      11.47
C      -7.05       6.48      11.05
C      -7.71       7.67      10.60
C      -6.90       8.79      10.22
C      -5.54       8.69      10.13
C       9.86       5.40      11.30
C       9.21       6.50      10.73
C       9.97       7.65      10.45
C       1.70       0.57      13.53
C       2.90       0.09      14.09
C       2.90      -0.78      15.18
C       1.71      -1.21      15.81
C       0.52      -0.83      15.15
C       0.52       0.02      14.06
C       6.00       7.19       1.89
C       5.35       7.19       3.10
C       6.54       5.19       3.74
C       7.20       5.19       2.51
C       6.91       6.17       1.54
C       1.49      -1.73      17.16
C       7.49       6.18       0.19
C       5.58       6.17       4.04
C       2.63       1.05       3.54
C       3.43       1.64       2.53
C       3.66       1.01       1.32
C       3.11      -0.26       1.06
C       2.48      -0.93       2.13
C       2.22      -0.29       3.34
C       8.09       8.08      15.09
C       7.14       7.52      14.26
C       6.06       9.62      14.04
C       7.07      10.22      14.79
C     -11.01       9.45      15.44
C     -10.15       9.23      17.72
C     -10.30       9.97      16.60
C       6.03       8.24      13.77
N       1.47       2.87       6.59
N       5.74       6.94       9.64
N       3.00       6.49       6.65
N       4.57       2.72       9.62
N       4.06       6.32       7.43
N       3.62       2.20       8.78
N       5.80       5.57       9.70
N       1.85       3.86       5.77
N       1.46       2.61      10.51
N       2.32       8.64       8.94
N      -0.20       5.55       7.88
N       4.04       5.85      11.86
N       3.50       7.01      11.37
N       0.27       4.73       8.88
N       2.32       3.37      11.25
N       1.23       8.32       8.18
N       1.26       0.54       6.70
N       2.32       6.58       4.43
N      -0.80       0.43      13.55
N       4.23      -1.22      15.63
N       4.99      10.47      13.46
N      -4.16      -6.70      15.00
O       0.79       0.73       7.87
O       1.39      -0.61       6.23
O       1.16       6.87       4.90
O       2.51       6.43       3.22
O      -1.05       1.64      13.50
O      -1.57      -0.48      13.22
O       4.32      -2.35      16.13
O       5.19      -0.45      15.45
O       5.29      11.16      12.47
O       3.86      10.37      13.96
O      13.81      -6.18      15.26
O      -3.09      -6.09      14.92
