219

Cu      18.55      21.34      20.06
Cu      18.27      18.84      21.97
Cu      20.86      19.16      20.12
Cu       5.71       3.83      20.04
Cu       5.90       6.21      22.12
Cu       3.34       5.87      20.25
Cu      18.10       3.90       6.39
Cu      18.49       5.68       3.82
Cu      20.36       6.15       6.34
Cu       6.05      20.87       6.55
Cu       6.30      18.36       4.61
Cu       3.64      18.89       6.35
H      16.30      23.21      21.28
H      15.67      19.62      23.61
H      22.71      20.23      17.76
H      19.53      23.17      17.68
H      19.11      16.36      23.72
H      22.75      17.00      21.46
H       7.80       1.82      21.29
H       8.23       5.17      24.00
H       1.43       4.79      17.95
H       4.87       2.21      17.42
H       5.10       8.85      23.72
H       1.40       7.95      21.64
H      15.48       2.25       5.56
H      16.44       4.26       1.85
H      22.17       5.19       8.74
H      19.16       2.07       8.72
H      19.75       7.75       1.79
H      21.95       8.74       5.39
H       8.24      22.74       5.31
H       8.81      19.22       2.86
H       1.64      20.17       8.48
H       5.07      22.79       8.89
H       5.38      15.83       2.93
H       1.69      16.84       4.96
H      15.13      24.39      22.98
H      13.59      20.61      24.37
H      12.13      21.79      25.95
H      13.43       0.84      24.52
H      10.40       4.04      24.65
H       8.47       0.46      23.23
H      10.11      23.82      24.69
H      11.80       2.69      26.16
H      12.75       2.86       3.46
H      16.22       1.05       1.67
H      14.96      24.41       0.22
H      11.29       1.49       2.01
H      11.65      21.04       3.22
H       8.16      23.36       2.28
H       9.47      24.68       0.66
H      12.98      22.41       1.66
H      20.63      24.30      15.98
H      23.78      21.35      16.03
H       0.77      22.58      14.27
H      21.62       0.80      14.22
H       3.75      24.23      10.20
H       0.66      21.23      10.32
H      23.64      22.53      12.01
H       2.36       0.81      11.89
H       0.48       3.88      16.03
H       3.64       0.95      15.88
H       2.63      24.46      14.13
H      23.45       2.65      14.29
H      23.38       4.00      10.33
H      20.36       0.91      10.31
H      21.84      24.37      11.97
H       0.47       2.73      12.00
H      23.59      14.96      22.44
H      20.46      15.29      25.38
H      21.82      13.61       0.42
H       0.61      13.42      23.89
H      20.45       9.85       0.90
H      23.53       9.88       3.92
H       0.63      11.49       2.60
H      21.61      11.53      25.96
H       3.95      13.41       2.69
H       0.79      16.33       2.56
H      23.71      14.91       1.02
H       2.66      11.96       1.18
H       3.81      11.30      23.94
H       0.45       8.60      23.95
H      23.42      10.11      25.43
H       2.58      12.83      25.40
C      16.31      22.23      21.73
C      15.51      21.70      22.76
C      15.98      20.39      22.91
C      21.83      20.84      17.91
C      21.42      22.00      17.23
C      20.21      22.34      17.86
C      19.90      16.67      23.04
C      21.23      16.23      22.94
C      21.75      16.99      21.88
C       7.75       2.76      21.83
C       8.43       3.16      22.99
C       7.99       4.48      23.20
C       2.37       4.27      17.99
C       2.85       3.21      17.19
C       4.13       2.95      17.72
C       4.31       8.48      23.07
C       2.95       8.85      23.01
C       2.41       8.00      22.03
C      15.87       2.88       4.77
C      15.52       2.93       3.42
C      16.37       3.89       2.87
C      21.32       4.54       8.58
C      21.00       3.31       9.19
C      19.78       2.95       8.57
C      20.17       7.84       2.79
C      21.16       8.71       3.28
C      21.31       8.33       4.62
C       8.22      21.76       4.84
C       8.95      21.29       3.74
C       8.53      19.96       3.61
C       2.59      20.69       8.43
C       3.04      21.82       9.13
C       4.34      22.03       8.63
C       4.60      16.22       3.57
C       3.23      15.91       3.60
C       2.71      16.76       4.59
C       0.14      12.42       0.03
C      12.17      24.46       0.02
C      24.10       0.26      13.09
C      14.47      23.80      23.62
C      14.52      22.40      23.58
C      13.63      21.70      24.41
C      12.80      22.37      25.31
C      12.82      23.76      25.41
C      13.63      24.47      24.50
C      10.27       2.96      24.67
C       9.31       2.36      23.84
C       9.21       0.96      23.86
C      10.01       0.20      24.70
C      10.94       0.80      25.57
C      11.06       2.19      25.53
C      13.20       2.17       2.75
C      14.60       2.08       2.65
C      15.13       1.16       1.73
C      14.31       0.40       0.91
C      12.92       0.54       0.95
C      12.38       1.40       1.92
C      11.16      21.83       2.65
C       9.80      22.08       2.84
C       9.22      23.14       2.13
C       9.96      23.88       1.21
C      11.31      23.60       0.98
C      11.91      22.59       1.75
C      21.58      23.90      15.61
C      22.10      22.71      16.16
C      23.33      22.26      15.64
C      23.99      22.95      14.63
C      23.46      24.13      14.08
C      22.24      24.59      14.60
C       2.82      23.84      10.60
C       2.32      22.61      10.13
C       1.09      22.17      10.66
C       0.42      22.91      11.63
C       0.93      24.11      12.12
C       2.14      24.57      11.57
C       0.92       2.97      15.62
C       2.16       2.52      16.10
C       2.69       1.35      15.53
C       2.01       0.66      14.53
C       0.77       1.11      14.05
C       0.24       2.28      14.62
C      22.98       3.05      10.69
C      21.75       2.57      10.19
C      21.30       1.33      10.68
C      22.03       0.62      11.63
C      23.23       1.11      12.15
C      23.70       2.33      11.64
C      23.16      14.71      23.41
C      21.92      15.26      23.79
C      21.40      14.88      25.04
C      22.10      14.00      25.87
C      23.34      13.46      25.49
C      23.84      13.83      24.24
C      21.42      10.19       1.28
C      21.89       9.72       2.52
C      23.12      10.23       2.97
C      23.85      11.13       2.21
C      23.41      11.56       0.95
C      22.17      11.08       0.51
C       2.98      13.75       2.32
C       2.48      14.99       2.74
C       1.21      15.37       2.26
C       0.50      14.56       1.38
C       1.00      13.33       0.94
C       2.25      12.93       1.45
C       2.81      11.02      24.28
C       2.24       9.82      23.84
C       0.93       9.53      24.26
C       0.24      10.39      25.11
C       0.81      11.59      25.57
C       2.11      11.89      25.11
N      16.98      20.15      22.03
N      17.18      21.29      21.29
N      19.93      21.45      18.83
N      20.93      20.51      18.86
N      20.81      17.82      21.39
N      19.65      17.62      22.11
N       7.12       4.84      22.23
N       6.98       3.77      21.37
N       4.38       3.77      18.76
N       3.29       4.60      18.92
N       3.37       7.18      21.55
N       4.55       7.47      22.20
N      17.17       4.39       3.84
N      16.87       3.76       5.02
N      19.42       3.89       7.67
N      20.38       4.88       7.68
N      20.47       7.31       4.91
N      19.77       7.00       3.77
N       7.61      19.66       4.56
N       7.42      20.78       5.33
N       4.63      21.09       7.71
N       3.55      20.26       7.58
N       3.69      17.52       5.10
N       4.87      17.20       4.47
