244

Zn      26.11       8.41      16.26
Zn       9.25       7.40      13.77
Zn       9.33       5.69      16.43
Zn      10.82       8.55      16.24
Zn      20.15       1.59      22.98
Zn      18.55       4.37      22.74
Zn      18.44       2.70      25.49
Zn      16.94       1.63      22.86
Zn      18.54      12.56       9.81
Zn      16.95      11.49       7.28
Zn      20.15      11.53       7.19
Zn      18.44      14.27       7.08
Zn       9.23      15.59       0.76
Zn       1.63       0.96       0.59
Zn      16.97       0.96       0.61
Zn      18.48      14.94      29.40
H      29.91      15.23      20.55
H      18.53      16.02      12.59
H      23.35       2.66      20.50
H      20.34       6.96      19.46
H      21.24       7.55      20.88
H      23.05       8.43      19.36
H      22.16       7.83      17.94
H      13.77       9.79       9.29
H      16.74      10.68      13.65
H      15.86      12.23      13.57
H      14.02      11.25      14.99
H      14.90       9.70      15.07
H      23.32       9.78       9.25
H      21.20      12.24      13.50
H      20.31      10.70      13.58
H      22.13       9.71      15.02
H      23.02      11.25      14.95
H      15.92       6.42      20.26
H      13.58       1.63      19.74
H      12.70       2.24      21.17
H      10.97       3.28      19.64
H      11.86       2.67      18.23
H      18.49       9.20      30.20
H      23.00       0.31      29.97
H      25.99      -0.56      25.62
H      34.36      15.29      25.69
H      23.27      -1.13      24.26
H      24.15       0.42      24.19
H      11.86      -1.08      26.51
H      14.19       1.46      30.60
H      15.08      -0.08      30.66
H      16.81       0.84      29.07
H      15.92       2.38      29.00
H      20.70       4.71       2.96
H      11.88      13.57       3.23
H       5.83       0.37       2.34
H       4.94       0.97       3.77
H       6.67      -0.06       5.29
H      16.81      16.74       3.87
H      13.75      -0.11       3.02
H      25.12      12.38       2.67
H      25.99      12.98       4.10
H      24.15      12.11       5.59
H      23.28      11.51       4.16
C      25.24       8.86      13.50
C       9.28       4.46      13.76
C      25.27       6.09      17.83
C      11.85       6.21      17.82
C      27.70      10.57      17.57
C      11.80       8.89      13.51
C      21.11       3.90      21.37
C      18.50       5.64      25.42
C      21.04       1.23      25.74
C      15.93       1.21      25.64
C      18.57      -0.49      21.60
C      15.98       3.94      21.34
C      16.00      11.10      10.05
C      18.54       9.41       5.92
C      21.09      11.11       9.99
C      21.04      13.85       5.65
C      18.49      15.51       9.77
C      15.93      13.79       5.68
C      11.81      16.04       2.15
C      18.59       3.06       1.92
C      25.24      16.04       2.16
C      25.25      -0.99      29.21
C      18.48      11.97      29.46
C      11.81      -1.00      29.20
C      26.61      12.56      18.84
C      28.88      14.93      20.36
C      27.68      11.81      18.36
C      27.80      15.66      20.82
C      28.45      13.80      19.63
C      27.05      13.69      19.56
C       9.26       3.08      11.57
C       9.28      -0.52      11.93
C       9.28       3.24      12.96
C       9.26      -0.64      10.55
C       9.28       0.84      12.30
C       9.26       1.72      11.20
C      22.16       4.46      20.47
C      24.25       5.48      18.74
C      22.12       5.75      19.95
C      24.29       4.16      19.28
C      23.13       6.23      19.12
C      23.28       3.68      20.11
C      21.33       7.04      19.91
C      22.47       7.59      18.96
C      14.94      10.54      10.93
C      12.83       9.43      12.58
C      14.97      10.63      12.32
C      12.81       9.35      11.16
C      13.95      10.09      13.10
C      13.83       9.88      10.37
C      15.75      11.14      13.51
C      14.60      10.53      14.41
C      22.14      10.54      10.88
C      24.22       9.41      12.56
C      22.09      10.63      12.27
C      24.26       9.32      11.14
C      23.10      10.08      13.07
C      23.25       9.87      10.34
C      21.30      11.14      13.45
C      22.44      10.53      14.36
C      14.93       4.52      20.45
C      12.93       5.70      18.71
C      13.80       3.81      20.05
C      14.09       6.41      19.13
C      12.84       4.39      19.21
C      15.05       5.83      19.97
C      13.05       2.50      20.16
C      11.97       3.15      19.21
C      18.52       8.22      25.73
C      18.49       9.43      29.14
C      18.51       6.90      26.18
C      18.49      10.73      28.66
C      18.50       8.51      28.07
C      18.51       9.14      26.81
C      24.18      -0.43      28.33
C      22.07       0.69      26.67
C      24.21      -0.52      26.94
C      22.05       0.76      28.10
C      23.19       0.03      26.15
C      23.07       0.22      28.89
C      25.00      -1.02      25.75
C      23.85      -0.40      24.85
C      12.85      -0.44      28.30
C      14.85       0.63      26.49
C      13.98       0.23      28.76
C      13.69      -0.05      26.03
C      14.94       0.74      27.88
C      12.73      -0.57      26.91
C      14.73       0.71      30.00
C      15.81       1.29      29.00
C      17.44       7.42       4.67
C      19.68       5.02       3.16
C      18.52       8.17       5.14
C      18.58       4.30       2.71
C      19.26       6.16       3.87
C      17.86       6.28       3.95
C      12.86      15.47       3.04
C      14.86      14.30       4.78
C      13.99      16.18       3.44
C      13.70      13.58       4.36
C      14.94      15.61       4.28
C      12.75      14.16       3.52
C       5.48       0.11       3.35
C      15.81      16.86       4.30
C      24.18      15.48       3.05
C      22.07      14.46       4.76
C      24.21      14.19       3.57
C      22.05      15.78       4.23
C      23.19      13.71       4.39
C      23.06      16.27       3.40
C      25.00      12.90       3.63
C      23.85      12.36       4.56
S      29.22      12.50      18.80
S      26.26      14.98      20.38
S       9.30       1.71      13.79
S       9.24       0.88       9.70
S      18.49       6.79      27.92
S      18.50      10.85      26.93
S      20.05       7.46       4.69
S      17.05       5.00       3.15
Br      24.78      12.20      18.61
Br       9.23       4.44      10.28
Br      18.53       8.81      23.95
Br      15.62       7.80       4.90
Br      25.70       2.91      18.95
Br      11.40       8.53      10.16
Br      25.65       8.46      10.16
Br      14.48       8.20      18.60
Br      20.65       1.60      29.09
Br      13.29      -0.34      24.18
Br      13.31      11.79       4.88
Br      20.65      17.04       4.57
O      27.79       7.52      15.72
O      24.98       8.98      14.75
O       9.22       5.56      13.13
O      26.30       5.41      17.54
O      26.27       8.32      13.00
O      25.01       7.27      17.42
O       9.35       4.30      15.03
O      10.91       5.38      17.55
O      28.87      10.15      17.26
O      11.93       7.41      17.40
O      26.59      10.04      17.28
O      10.85       8.21      13.01
O      11.97       9.14      14.76
O      18.54       2.57      23.53
O      21.27       2.72      21.81
O      18.56       5.73      24.15
O      20.03       1.83      26.23
O      20.12       4.68      21.61
O      21.27       1.04      24.49
O      18.45       4.57      26.12
O      16.86       1.83      26.27
O      17.42       0.02      21.86
O      15.85       1.05      24.38
O      19.71      -0.03      21.94
O      16.97       4.69      21.62
O      15.79       2.74      21.73
O      18.55      12.47       7.85
O      16.97      11.69      10.63
O      17.42       9.88       6.28
O      21.25      10.97       8.73
O      15.84      10.94       8.79
O      20.11      11.68      10.59
O      19.70       9.89       6.18
O      21.27      12.65       6.03
O      18.45      15.63       8.50
O      20.02      14.55       5.96
O      18.52      14.42      10.44
O      15.85      12.59       6.10
O      16.87      14.62       5.96
O       9.26      -2.36      31.36
O      10.82      15.29       1.87
O      19.73       2.58       1.61
O      25.09      17.24       1.76
O      12.00      17.24       1.75
O      26.21      15.26       1.89
O      17.44       2.57       1.63
O      25.10      -0.84      30.46
O      18.48      13.07      28.79
O      26.22      -1.58      28.62
O      18.48      11.84      30.73
O      12.00      -0.84      30.46
O      10.82      -1.58      28.65
