134

Zn       6.00       0.83       1.78
Zn      -0.25       6.34      10.32
Zn       0.80      -6.32      10.39
Zn       8.72      -0.91       1.70
H       2.75       1.62       2.20
H       0.76       6.89       7.13
H       2.67      -3.78       9.92
H      10.60       1.75       2.04
H       7.32       3.72       2.33
H      10.06       0.08       4.56
H       2.49       9.07       3.27
H       0.92       8.74       2.55
H       0.49       7.48       4.48
H       0.87       3.13      10.07
H       1.85       8.20       5.35
H       2.65      10.97       4.97
H       1.51      10.14       6.84
H      -0.72      11.84       3.92
H      -1.42       8.91       3.97
H      -1.96      10.18       5.05
H       5.04      -2.45       4.96
H       3.72      -3.50       6.58
H      -5.19       6.27       9.85
H       3.35      -0.96      11.84
H       0.24       0.80      11.04
H       7.70       8.41       1.34
H      -5.52       3.10       9.19
H      -4.00       1.41       6.28
H       8.26       2.95       6.83
H       7.80      -4.77       9.77
H      13.08       2.54       0.98
H      -4.70      -4.21       9.93
H       3.88      10.91       2.38
H       0.34       1.91       0.91
H      -1.81       3.59      10.16
H       0.23      13.23       2.13
H       6.94      11.07       2.41
H      -2.22      -4.97       9.80
H       6.30       2.21       4.89
H       3.25       7.12       8.05
H       1.98       6.33       9.01
H       4.78       7.04      10.04
H       3.49       6.31      11.00
H       3.43       4.30       9.49
H       5.05       4.53      10.17
H       4.73       5.00       8.49
H       0.13      -4.89       8.05
H       0.31      -2.71       7.50
H       1.67      -3.00       6.40
H       1.94      -2.97       8.16
H      -0.76       9.90       1.74
H      -2.85      10.83       1.11
H      -2.80      11.88       2.54
H      -3.06      10.13       2.74
H       5.50       4.56       0.02
H       3.44       5.16       0.65
H      -1.75      -0.56      11.64
H       4.23       6.57       1.42
H      -2.26       4.00       8.00
H      -1.39       4.03       5.87
H      -3.09       4.53       5.62
H      -2.58       2.86       5.28
C       3.06       1.74       1.16
C       6.72      10.12       0.38
C      -3.84       4.47       9.71
C       1.73      11.60       2.54
C       7.15       1.58       4.62
C      -0.08       7.52       7.41
C       2.46      -3.94      10.97
C      10.56       1.40       1.01
C       5.55      -6.30      10.73
C       7.42       3.43       1.28
C       9.06       0.50       4.45
C       0.97       3.52      11.08
C      -1.68       9.04       7.56
C       8.39       1.44       5.26
C      -0.61       8.62       6.73
C       7.77       4.23       0.17
C       6.10      -5.53      11.79
C       1.41       9.19       3.44
C       0.97       8.44       4.73
C       1.57      11.18       4.92
C      -0.49      10.83       3.54
C       1.06      10.69       3.54
C      -4.23       5.79      10.00
C      -0.01       9.31       5.54
C       0.82      10.51       6.07
C      -1.08       9.79       4.54
C       1.22      -0.95      11.85
C       7.74       5.70       0.09
C       1.04       0.49      11.73
C       6.99       8.70       0.56
C      -3.98       2.99       7.74
C      -4.53       3.46       8.90
C      10.20       2.12       6.79
C       3.10      11.65       2.24
C       8.92       2.20       6.38
C       8.22      -4.69      10.77
C       7.39      -4.90      11.83
C      -5.20      -4.55      10.84
C       0.86       2.28       0.02
C      -2.50       4.43      10.14
C       1.25      12.85       2.12
C       6.69      11.13       1.35
C      -2.07      -5.16      10.85
C       2.29       2.12       0.05
C       2.86       6.99       9.07
C       3.91       6.37       9.99
C       4.30       4.98       9.50
C       1.23      -3.28       7.37
C      -2.51      10.89       2.16
C       4.09       6.03       0.46
C      -2.43       3.71       5.96
N       4.34       1.52       0.80
N      -0.76       7.27       8.55
N       2.09      -5.17      11.41
N       9.62       0.51       0.64
N       0.93       7.72      11.17
N       7.19       2.16       0.88
N       8.29       0.13       3.42
N      -1.75       8.23       8.65
N       0.70       4.81      11.35
N      -3.19       6.47      10.52
N       3.40      12.85       1.70
N      -2.12       5.64      10.60
N       2.26      13.59       1.63
N       6.25      12.29       0.82
N      -0.86      -5.52      11.31
N       7.09       0.79       3.53
N      -2.67      10.02       7.40
N      -1.06      10.77       2.20
N       0.05      -1.70      11.75
N      -2.67       3.32       7.35
O       2.46       8.33       9.46
