240

Hf      15.05      18.50      17.05
Hf      14.77      17.06       0.10
Hf      18.25      18.97      18.39
Hf      16.98      15.73      17.97
Hf      16.48       0.54       0.52
Hf      17.97      17.53       1.44
H      14.29      15.79      17.15
H      16.75       1.16      17.84
H      -0.31      16.55      19.27
H      15.51      18.36       2.50
H       4.40      15.18      15.77
H       2.93      18.35      13.27
H       0.78      18.36      14.56
H       2.16      15.01      16.88
H       9.90      17.42      13.26
H       7.54      16.46      16.72
H       9.61      16.56      18.16
H      11.94      17.58      14.69
H       6.18      -0.02       1.78
H       3.40      18.89       5.29
H       1.34      18.72       3.87
H       3.66      19.63       0.37
H      10.42      17.92       5.26
H       9.28       1.08       2.53
H      11.48       1.18       1.35
H      12.54      17.85       3.94
H       4.64      18.39       7.84
H       8.91      18.39       8.21
H       8.70      17.85      10.65
H       4.42      17.85      10.28
H      13.45       5.95      16.67
H      10.53       4.25      19.32
H      11.80       2.09      19.32
H      14.61       3.74      16.51
H      10.55      11.26      18.87
H      14.07       9.08      17.73
H      15.42      11.20      17.87
H      11.90      13.35      19.07
H      19.42       7.13       0.88
H       2.71       4.49      19.64
H       1.38       2.38      19.45
H      18.09       5.00       0.75
H       2.78      11.63      19.42
H       0.07      10.14       1.57
H      18.49      12.30       1.64
H       1.50      13.78      19.41
H       5.50      10.10      19.68
H       5.22       5.84      19.21
H       7.69       5.72      18.74
H       7.97       9.98      19.22
H      17.08      12.18       5.66
H      14.19      14.94       7.23
H      14.12      16.13       5.03
H      17.18      13.50       3.53
H      16.16      12.05      12.63
H      15.11      15.57      10.41
H      15.12      16.92      12.53
H      16.25      13.41      14.73
H      18.43       0.73       8.04
H      17.38       4.26       5.84
H      17.36       2.93       3.71
H      18.03      19.16       5.89
H      16.65       4.17      12.92
H      19.06       1.12      11.08
H      19.13      -0.14      13.24
H      16.59       2.84      15.04
H      17.01       7.01      11.46
H      16.86       6.78       7.17
H      16.38       9.24       7.05
H      16.54       9.47      11.34
C      17.75       3.42      10.58
C      17.28       5.30       9.38
C      17.78       3.35       8.31
C      15.72      12.82       7.88
C      15.70      12.93      10.15
C      16.16      10.95       9.12
C       2.50       9.69       0.47
C       2.40       7.43       0.37
C       4.38       8.50       0.01
C      11.27       6.54      18.16
C      11.42       8.81      18.29
C       9.43       7.77      18.67
C       8.17      19.25       4.62
C       6.90      18.75       6.44
C       5.91      19.26       4.45
C       5.13      16.93      13.84
C       6.42      17.48      12.05
C       7.39      16.97      14.06
C      17.69       0.43      15.50
C      12.14      17.27      17.31
C      15.82      16.00      15.03
C      14.12       1.56      18.08
C      15.82      15.73       2.93
C       1.15      18.91       1.23
C      14.50      13.67      18.66
C      13.15      19.23       1.73
C      18.42       2.08      19.72
C       0.12      16.82      16.64
C      19.24      14.65       0.45
C      17.77       0.33       3.41
C       3.58      15.83      15.47
C       3.79      16.77      14.46
C       2.75      17.63      14.07
C       1.55      17.62      14.77
C       1.34      16.68      15.79
C       2.34      15.75      16.10
C       9.84      17.23      14.33
C       8.60      16.94      14.91
C       8.52      16.68      16.29
C       9.66      16.74      17.08
C      10.89      17.09      16.51
C      10.97      17.32      15.12
C       4.76      19.54       2.23
C       4.69      19.31       3.62
C       3.44      19.05       4.21
C       2.30      18.96       3.43
C       2.38      19.15       2.04
C       3.61      19.48       1.45
C      10.56      18.57       4.40
C       9.49      19.37       3.97
C      10.12       0.47       2.86
C      11.34       0.52       2.20
C      11.92      19.40       2.57
C      11.75      18.55       3.68
C       5.52      18.27       8.47
C       6.79      18.43       7.88
C       7.93      18.27       8.67
C       7.82      17.97      10.03
C       6.55      17.82      10.62
C       5.40      17.97       9.82
C      13.07       5.09      17.21
C      11.93       5.23      18.00
C      11.43       4.12      18.71
C      12.13       2.92      18.70
C      13.28       2.78      17.91
C      13.72       3.86      17.13
C      11.61      11.26      18.65
C      12.23      10.05      18.30
C      13.61      10.03      18.01
C      14.36      11.20      18.09
C      13.74      12.40      18.49
C      12.36      12.41      18.76
C       0.23       6.18       0.64
C       1.61       6.17       0.39
C       2.25       4.96       0.08
C       0.90       3.32      19.72
C       0.13       3.81       0.20
C      19.17       5.00       0.57
C       2.39      12.16       0.11
C       1.80      10.99       0.61
C       0.52      11.06       1.18
C      -0.17      12.26       1.22
C       0.39      13.41       0.66
C       1.68      13.36       0.11
C       5.99       9.14      19.48
C       5.21       7.97      19.48
C       5.83       6.74      19.21
C       7.20       6.67      18.95
C       7.98       7.84      18.95
C       7.36       9.08      19.22
C      16.44      13.05       5.51
C      15.64      13.49       6.57
C      14.80      14.60       6.39
C      14.77      15.27       5.17
C      15.64      14.88       4.14
C      16.48      13.77       4.32
C      15.94      13.12      12.62
C      15.63      13.73      11.39
C      15.33      15.11      11.37
C      15.35      15.86      12.54
C      15.70      15.24      13.75
C      15.98      13.87      13.78
C      18.22       1.20       7.08
C      17.89       2.57       7.06
C      17.62       3.20       5.84
C      17.61       2.47       4.66
C      17.91       1.09       4.68
C      18.24       0.47       5.89
C      17.19       3.22      13.01
C      17.86       2.72      11.88
C      18.56       1.51      11.97
C      18.59       0.80      13.17
C      17.87       1.27      14.27
C      17.18       2.49      14.19
C      16.87       7.50      10.50
C      16.97       6.74       9.32
C      16.79       7.38       8.08
C      16.53       8.74       8.01
C      16.44       9.50       9.19
C      16.61       8.87      10.43
N      17.39       4.72      10.59
N      17.44       4.64       8.22
N      17.99       2.70       9.47
N      15.49      13.56       8.98
N      16.01      11.63      10.27
N      16.07      11.52       7.90
N       1.75       8.58       0.61
N       3.71       7.33       0.08
N       3.81       9.71       0.17
N      12.04       7.64      18.01
N      10.12       8.92      18.60
N       9.97       6.55      18.50
N       8.14      18.86       5.91
N       5.77      18.91       5.74
N       7.09      19.50       3.86
N       5.18      17.35      12.56
N       7.55      17.34      12.77
N       6.20      16.69      14.62
O      18.63       0.27      16.33
O      12.28      16.74      18.45
O      15.26      17.14      15.18
O      14.33       0.75      17.13
O      14.60       1.47      19.27
O      16.51      15.39      15.93
O      13.03      17.98      16.71
O      16.50      -0.06      15.58
O      14.54      18.44      19.04
O      16.90      17.72      17.47
O      14.84      16.36      17.71
O      16.71       0.26      18.19
O      14.86      15.92       2.11
O       1.02      19.40       0.07
O      15.64      13.84      18.13
O      14.40       0.44       1.55
O      17.87       2.39       0.47
O      -0.67      15.84      16.84
O      19.07      15.48       1.38
O      17.86      18.94       3.27
O      18.17      14.26      19.00
O      17.04       0.92       2.53
O      13.87      14.56      19.36
O       0.00      18.00      17.14
O      19.04       1.23      18.98
O      13.27      18.04       1.27
O      16.99      16.25       2.85
O       0.29      18.15       1.82
O      17.83      19.30       0.41
O      16.77      16.60       0.06
O      18.45      16.89      19.23
O      15.87      18.32       1.60
