96

Al       1.63       4.60       5.34
Al       5.02      13.92      15.96
Al       4.96       4.66       5.31
Al       1.69      13.86      15.99
H       1.77      11.79      19.53
H       4.88       6.74       1.77
H       5.10      16.00      12.42
H       1.55       2.52       8.88
H       3.75       8.10      19.21
H       2.91      10.43       2.09
H       0.42      -0.04      12.73
H       6.23      18.56       8.56
H       3.77       6.49      21.07
H       2.88      12.04       0.23
H       0.44       1.57      10.88
H       6.21      16.95      10.42
H       3.24       6.34       4.99
H       3.41      12.19      16.31
H       6.57       2.92       5.66
H       0.08      15.60      15.64
C       3.30       3.06       3.47
C       3.35      15.46      17.83
C       6.63       6.20       7.18
C       0.02      12.32      14.12
C       3.32       2.89       7.01
C       3.33      15.64      14.29
C       6.65       6.37       3.64
C       0.00      12.15      17.66
C       0.99      11.03      19.62
C       5.66       7.49       1.68
C       4.32      16.75      12.33
C       2.34       1.77       8.97
C       6.62      11.04      18.67
C       0.04       7.49       2.63
C       3.29      16.75      13.28
C       3.36       1.77       8.02
C       5.61      10.05      18.74
C       1.04       8.47       2.56
C       2.29      17.74      13.21
C       4.37       0.79       8.09
C       5.59       9.10      19.79
C       1.06       9.43       1.51
C       2.26      18.69      12.16
C       4.39      -0.16       9.14
C       6.64       9.13      20.77
C       0.01       9.39       0.53
C       3.32      18.65      11.18
C       3.34      -0.13      10.12
C       1.03      10.10      20.66
C       5.63       8.42       0.64
C       4.36      17.68      11.29
C       2.30       0.84      10.01
C       4.56       8.11      19.94
C       2.09      10.41       1.36
C       1.24      -0.05      12.01
C       5.42      18.58       9.29
C       4.58       7.22      20.97
C       2.08      11.31       0.33
C       1.25       0.84      10.98
C       5.41      17.68      10.32
C       0.02      11.39      13.01
C       6.63       7.13       8.28
C       3.35      16.39      18.93
C       3.31       2.13       2.37
C       0.01      10.57      12.10
C       6.64       7.95       9.20
C       3.34      17.21      19.85
C       3.31       1.31       1.45
C       0.00       9.68      11.11
C       6.65       8.85      10.19
C       3.33      18.11      20.84
C       3.32       0.41       0.46
I       4.21       9.81      17.16
I       2.44       8.72       4.14
I       0.89      17.98      14.79
I       5.77       0.54       6.51
O       4.43       3.37       6.63
O       2.22      15.15      14.67
O       1.11       5.89       4.02
O       5.55      12.63      17.28
O       2.16       3.38       3.93
O       4.49      15.15      17.37
O       5.49       5.89       6.72
O       1.17      12.64      14.58
O       2.17       3.29       6.64
O       4.48      15.23      14.66
O       5.50       5.97       4.01
O       1.15      12.55      17.29
O       1.12       5.81       6.77
O       5.54      12.71      14.53
O       4.44       3.45       3.88
O       2.21      15.07      17.42
O       3.29       5.42       5.33
O       3.37      13.10      15.97
O       6.61       3.84       5.32
O       0.04      14.69      15.98
