90

Zn      -2.40      -7.91      14.16
Zn      -4.16       2.71       7.92
Zn      11.13       3.79       6.23
Zn       9.37      14.41       0.00
Zn       0.73      10.56       6.06
Zn       6.24      -4.06       8.10
H      12.31      -5.48      11.23
H      -3.70      12.39       1.35
H      -2.74      13.87       1.35
H       9.71      -7.37      12.80
H      10.68      -5.89      12.80
H       9.14      -4.90      11.36
H      -2.17      11.39       2.80
H      -1.21      12.87       2.80
H      -5.34      11.98       2.93
H       8.18      -6.37      11.36
H       3.84       0.03       2.93
H       3.13       6.47      11.23
C       8.36       5.59      12.18
C      -1.36       8.84       7.08
C       8.33      -2.34       7.08
C       8.55      -5.56       8.77
C      -1.58      12.06       5.38
C      10.56       1.09       7.08
C      -3.59       5.41       7.08
C      -1.39       0.90       1.97
C      10.57       4.16       9.05
C      -3.60       2.34       5.10
C       9.11      -1.14       7.08
C      -2.14       7.63       7.08
C       9.77      -0.12       7.08
C      -2.80       6.61       7.08
C       5.37       7.54      12.42
C       1.60      -1.04       1.74
C      12.01      -6.26      10.52
C      -5.04      12.75       3.63
C       3.26      -0.56       3.63
C       3.71       7.06      10.52
C      11.01      -5.67       9.49
C      -4.04      12.16       4.67
C       4.20      -1.23       4.67
C       2.77       7.73       9.49
C       9.79       4.67      10.15
C      10.20      -6.64      12.15
C      -3.23      13.13       2.00
C       4.45       8.13      11.34
C       2.52      -1.64       2.81
C      -2.81       1.83       4.01
C       2.70       9.28       9.73
C       4.27      -2.78       4.43
C       9.19      -5.98      11.20
C      -2.22      12.48       2.96
C       9.13       5.09      11.08
C      -2.16       1.40       3.08
I       7.05       8.78       9.61
I      -4.05       9.95       4.49
I       6.22      -0.33       4.49
I       0.75       6.82       9.67
I      11.02      -3.45       9.67
I      -0.08      -2.28       4.55
I       2.05       1.00       4.55
I       4.92       5.50       9.61
O      -8.28       6.75      12.62
O      -6.20      13.71       1.30
O       1.91       0.11       1.30
O       5.06       6.38      12.85
O      13.17      -7.21      12.85
O       8.62      -3.20       6.18
O      -1.64       9.70       7.98
O       7.43      -2.42       7.98
O      15.25      -0.25       1.54
O      -0.45       8.92       6.18
O       1.89       9.80       7.53
O       5.08      -3.31       6.63
O       7.59      -4.94       9.32
O      -0.46       1.67       1.54
O      -0.62      11.43       4.84
O      10.14       2.03       6.33
O      -3.17       4.46       7.83
O      11.59       1.09       7.83
O      -4.62       5.41       6.33
O       7.43       4.83      12.62
O      10.15       4.43       7.88
O      -3.18       2.07       6.28
O      -5.35       3.48       9.37
O      12.32       3.02       4.79
F       4.54       9.60       8.20
F       2.43      -3.10       5.96
F       3.82      -0.97       5.96
F       3.15       7.46       8.20
