184

Al       7.33       4.65      13.95
Al       8.98       7.39      13.97
Al      10.52       4.83      13.97
Al      16.62       9.97       0.44
Al      13.42      10.01       0.46
Al      14.79       7.34       0.52
H      11.12       9.84      21.76
H       7.35       3.42      22.01
H       4.32       5.78      21.73
H      16.22       8.03      20.00
H       6.81       5.19      20.51
H       8.12       6.81      22.45
H       7.84       9.05      20.71
H       5.34       9.64      21.93
H      13.17       9.58      19.85
H      10.51       9.03      10.68
H      10.65      10.74       6.19
H      13.25       5.94       3.79
H      13.51       4.56       5.85
H      13.30       4.35       8.30
H      12.43       5.20      10.45
H      11.22       0.83       3.87
H      12.53       1.34       5.94
H       9.77       7.64      20.56
H      12.62       1.93       8.30
H       6.94       1.18       3.91
H       5.76       2.03       5.96
H       5.84       2.67       8.35
H       7.15       3.06      10.42
H       3.97       5.68       4.07
H       5.47       5.39      10.78
H       6.23       9.28       3.77
H       7.42      10.20       5.74
H       7.95      10.11       8.17
H       7.73       8.99      10.36
H      13.23       5.61      20.38
H      14.56       7.81      21.58
H      11.35       3.06      22.16
H      11.23       0.94      20.29
H       9.47       4.54      20.49
H       6.93       1.50      19.10
H      14.45      10.40      22.66
H      10.48      10.39       4.42
H      10.68      10.83       9.73
H       4.57       0.70       8.31
H      11.64       2.77      11.59
H      12.48       2.08      10.21
H       3.88       4.21       5.23
H       4.33       4.33       9.80
H      10.79       4.96      22.00
H       5.42       3.55      14.75
H       6.78      11.28      27.45
C       7.06       6.90      15.92
C      11.54       7.24      17.15
C      13.49       7.76      21.34
C      12.35       7.92      22.43
C      12.76       6.55      20.69
C      11.99       7.53      19.73
C      11.61       6.70      21.75
C      10.83       7.68      20.80
C      12.56       8.06      23.82
C      11.77       7.36      18.34
C      10.38       1.49      20.68
C      11.05       6.96      15.83
C      10.43       2.68      21.69
C       9.17       1.54      25.08
C       9.35       2.70      17.18
C       9.19       0.86      21.48
C       9.23       2.08      22.52
C       8.15       1.67      20.59
C       9.36       2.29      19.78
C       8.21       2.87      21.61
C       9.40       3.49      20.82
C       9.18       1.85      23.91
C       9.30       3.24      15.85
C       9.39       2.48      18.38
C       4.95       7.75      20.56
C       5.11       6.51      21.50
C       5.35       7.61      25.15
C       6.71       7.23      17.28
C       5.68       8.66      21.60
C       5.83       7.41      22.57
C       7.06       8.32      20.95
C       6.34       7.42      19.87
C       7.22       7.08      21.89
C       7.04       7.00      12.08
C       6.49       6.18      20.85
C       5.58       7.47      23.96
C       6.55       7.36      18.48
C      11.04       8.30      10.07
C      11.23       8.49       8.70
C      11.46       8.73       5.86
C      10.93       9.79       6.65
C      10.83       9.71       8.02
C      11.56       8.83       4.44
C      12.26       7.83       3.71
C      11.09       6.85      12.10
C      12.12       6.12       9.95
C      12.30       6.26       8.57
C      11.83       7.45       7.92
C      12.92       5.23       7.79
C      13.04       5.36       6.44
C      12.57       6.52       5.75
C      11.95       7.57       6.51
C      12.73       6.69       4.38
C      11.47       7.12      10.69
C      10.49       2.52       9.94
C       9.19       3.36      11.98
C      10.45       2.16       8.55
C      10.37       1.45       5.78
C      11.61       1.54       6.49
C      11.64       1.87       7.81
C      10.31       1.07       4.43
C       9.08       0.97       3.78
C       8.06       2.80       9.88
C       7.99       2.42       8.54
C       9.21       2.10       7.86
C       6.75       2.38       7.82
C      12.73       8.75      20.40
C       6.71       2.02       6.50
C       7.91       1.68       5.79
C       9.16       1.74       6.48
C       7.89       1.28       4.45
C       9.27       2.87      10.59
C       5.79       6.20      10.11
C       5.47       6.22       8.74
C       4.95       6.28       5.94
C       4.50       5.18       6.75
C       4.69       5.19       8.12
C      11.58       8.90      21.45
C       4.62       6.39       4.58
C       5.07       7.48       3.82
C       7.09       8.24       9.90
C       6.80       8.30       8.53
C       5.99       7.28       7.94
C       7.31       9.36       7.71
C       7.03       9.40       6.37
C       6.22       8.39       5.75
C       5.72       7.31       6.55
C       5.89       8.45       4.39
C      12.75       8.17      25.02
C       6.60       7.18      10.68
C       9.25       0.96      26.40
C      13.15       8.40      26.38
C       4.94       8.02      26.47
C       9.05       0.44       2.39
C      12.66       8.01       2.29
C       4.60       7.69       2.42
N      10.32      10.77       8.77
N      11.68       2.57      10.59
O       8.16       3.43      15.34
O      10.36       7.71      12.70
O      11.46       5.74      12.62
O      10.29       3.49      12.67
O       8.96       5.63      13.99
O       5.29       9.19      26.82
O      10.38       0.59      26.80
O       8.13       0.83      27.03
O      12.83       9.53      26.88
O      13.86       7.50      26.95
O       4.20       7.21      27.14
O       6.78       5.73      15.53
O       5.02       8.71       1.82
O      10.16       0.15       1.85
O       7.90       0.26       1.84
O      12.36       9.10       1.69
O      13.39       7.09       1.76
O       3.74       6.85       1.95
O      14.93       9.10       0.45
O       7.68       7.80      15.24
O      10.21       7.80      15.34
O      11.44       5.88      15.27
O      10.43       3.56      15.32
O       8.05       3.66      12.44
O       6.66       5.96      12.69
O       7.85       7.88      12.58
O       7.02       1.13      20.00
O      14.99      10.50      21.84
O      11.01       9.88       3.78
O       3.85       4.11       6.20
O       4.15       4.16       8.85
O      11.07       5.71      22.56
O       5.84       3.72      13.90
O       6.01      10.81       0.44
