71

Al       4.65       9.15       0.08
H       1.99      13.62      10.87
H       3.89      24.26      14.45
H       3.26       6.97       6.22
H       3.30      22.17      10.75
H       1.51      10.89       6.26
H       3.33      11.55      14.40
H       0.44       6.11       0.03
H       4.91      16.68      13.17
H       3.02      12.10       3.41
H       1.80       5.94       3.21
H       4.21      19.06      11.45
H       4.44      13.75       0.99
C       2.78      16.20      14.72
C       2.79      19.74      14.75
C       2.51       9.03       2.09
C       2.29      13.62      11.92
C       2.65      12.43      12.55
C       3.70      23.33      13.93
C       3.69      23.32      12.52
C       2.38       8.93       6.39
C       2.90       7.84       5.67
C       3.34      22.16      11.84
C       3.01      20.99      12.53
C       3.03      20.98      13.93
C       3.35      22.18      14.63
C       2.94       7.87       4.28
C       2.45       8.98       3.58
C       1.91      10.06       4.30
C       1.89      10.04       5.70
C       3.07      12.47      13.88
C       3.16      13.68      14.58
C       2.76      14.88      13.95
C       2.31      14.84      12.61
C       2.33      10.08       9.82
C       2.90       8.89      11.87
C       2.61      11.15      11.82
C       2.40       8.90       7.86
C       2.74       7.67       9.77
C       3.85      24.58      11.78
C       3.40       4.61       0.24
C       1.91      16.03      11.77
C       1.29      11.29       3.68
C       3.55       6.66       3.63
C       2.46      19.83      11.75
C       2.68      13.41       0.29
N       2.65       8.88      10.49
N       2.95      10.05      12.51
N       2.24      11.21      10.52
N       2.14      10.06       8.50
N       2.68       7.71       8.44
N       3.04       7.72      12.51
N       2.85       6.53      10.43
O       1.54       9.61       1.49
O       1.78      16.45      15.47
O       1.75      19.04      14.57
O       3.52       8.50       1.50
O       3.72      19.49      15.59
O       3.79      16.96      14.56
O       4.29       5.51       0.71
O       3.02       3.68       0.92
O       1.13      16.97      12.35
O       2.27      16.12      10.62
O       2.02      12.31       3.33
O       4.30      11.32       3.61
O       2.80       5.75       3.07
O       0.53       6.55       3.72
O       3.22      18.84      11.37
O       1.26      19.89      11.47
O       3.46      13.91       1.22
O       1.50      13.12       0.51
