64

Al       6.35       5.68       8.80
Al       9.69       5.65       8.78
H       4.70       4.10       9.61
H       8.06       7.24       8.06
H       6.71       6.14       4.83
H       6.94       6.00       2.34
H       2.82       4.74       2.11
H       9.99       5.22      15.45
H       6.03       6.44      12.72
H       5.86       6.45      15.21
H       3.11       2.75       6.79
H       4.59       1.44       5.34
H       6.34       8.40       6.95
H       7.84       9.57       5.40
H       8.86       5.01       5.65
H       8.20       4.63       4.08
H       3.90       5.29      11.87
H       4.56       4.90      13.44
C       7.98       3.26       8.59
C       8.07       5.75      11.20
C       4.73       8.07       8.91
C       4.66       5.59       6.35
C       4.68       5.49       4.89
C       5.88       5.81       4.22
C       6.01       5.73       2.84
C       4.88       5.34       2.07
C       3.68       5.04       2.71
C       3.54       5.10       4.11
C       4.97       5.28       0.66
C       7.84       5.81      16.90
C       7.92       5.80      15.48
C       9.12       5.48      14.84
C       9.24       5.48      13.43
C       8.08       5.81      12.67
C       6.88       6.15      13.33
C       6.78       6.16      14.71
C       7.97       1.76       8.59
C       2.22       1.03       7.77
C       7.11       1.08       9.43
C       3.09       1.67       6.85
C       3.92       0.93       6.03
C       4.71       9.57       8.81
C      10.51      10.31       9.59
C       5.53      10.22       7.84
C       6.37       9.49       6.95
C       7.20      10.15       6.07
N       2.34       4.77       4.67
N       3.76       5.14      12.87
N       9.73       9.64      10.65
N       6.16       1.85      10.29
O       6.86       3.85       8.46
O       9.20       5.80      10.59
O      10.27       7.49       8.72
O       5.75       5.85       6.97
O       5.85       7.52       9.10
O       3.53       5.42       6.95
O       9.10       3.82       8.76
O       6.94       5.61      10.61
O       4.70       5.05       9.35
O       8.03       6.28       8.20
O      10.32       8.79      11.32
O       8.55       9.98      10.79
O       5.06       2.11       9.80
O       6.58       2.20      11.39
