132

Zn       5.65       8.55       8.86
Zn       8.63       8.68       8.91
H      15.40       8.28      10.35
H      15.47       8.98       7.37
H       7.06      -0.01       7.60
H       7.13      17.25      10.14
H       5.11       8.10      15.75
H       9.41       7.86      15.50
H       5.50       8.87       1.87
H       9.70       9.63       2.51
H      10.49       9.98      11.77
H       9.60      10.55      10.35
H      11.12      11.34      10.82
H      13.35      11.26      10.90
H      14.48       9.95      11.27
H      12.92      10.05      12.11
H      10.92       7.50       6.12
H       9.66       7.03       7.26
H      11.11       6.03       7.07
H      13.09       5.79       7.37
H      14.62       6.64       7.67
H      13.57       7.11       6.31
H       0.59      10.03      11.42
H      -0.28      10.67      10.02
H       1.28      11.36      10.51
H       3.57      11.15      10.48
H       4.55       9.73      10.85
H       2.99       9.96      11.66
H       1.27       7.36       5.56
H      -0.22       7.22       6.52
H       1.07       6.02       6.69
H       3.31       5.86       7.09
H       4.74       6.89       7.14
H       3.52       7.12       5.88
H       4.27       4.50       8.45
H       4.91       5.37       9.84
H       4.28       3.72      10.03
H       4.57       1.44       9.80
H       5.18       0.61       8.36
H       4.26       2.12       8.20
H      10.60       3.85      10.18
H       9.74       5.40      10.38
H      10.49       5.01       8.84
H      10.80       2.55       8.38
H      10.03       0.95       8.26
H      10.53       1.59       9.83
H       3.84      15.49       7.65
H       4.15      16.16       9.26
H       3.46      14.54       9.09
H       3.82      12.29       8.80
H       4.81      11.53       7.55
H       3.99      13.09       7.23
H      10.00      15.21       9.71
H       9.00      16.67       9.66
H       9.68      16.02       8.17
H      10.16      13.74       7.96
H       9.61      12.04       8.01
H      10.10      12.86       9.50
C       7.34       6.06       9.01
C       7.05       8.94       6.31
C       7.10      11.18       8.77
C       7.04       8.28      11.47
C      11.46       7.85       8.16
C      12.86       7.75       8.25
C      13.53       8.52       9.22
C      12.78       9.35      10.07
C      11.39       9.43       9.90
C      15.00       8.50       9.36
C      -0.71       8.76       8.36
C       1.51       7.91       7.64
C       0.76       8.72       8.51
C       1.43       9.46       9.50
C       2.82       9.33       9.62
C       2.90       7.82       7.82
C       7.41       4.56       9.18
C       8.66       3.89       9.27
C       8.73       2.51       9.00
C       7.55       1.77       8.79
C       6.29       2.41       8.90
C       6.21       3.79       9.11
C       7.59       0.32       8.50
C       6.60      16.90       9.24
C       8.00      14.88       8.94
C       6.71      15.46       8.96
C       5.58      14.66       8.67
C       5.74      13.27       8.46
C       7.01      12.67       8.60
C       8.16      13.50       8.71
C       7.10       7.98      12.96
C       5.95       7.97      13.78
C       6.02       8.05      15.17
C       7.27       8.11      15.81
C       8.43       7.92      15.03
C       8.33       7.85      13.65
C       7.31       8.34      17.20
C       7.85       8.89       0.63
C       7.65       9.12       2.01
C       6.34       9.03       2.53
C       6.13       9.12       3.91
C       7.19       9.25       4.83
C       8.46       9.52       4.26
C       8.70       9.45       2.89
C      10.60      10.37      10.75
C      13.42      10.19      11.14
C      10.74       7.06       7.11
C      13.58       6.78       7.36
C       0.71      10.43      10.40
C       3.53      10.07      10.71
C       0.87       7.10       6.55
C       3.67       6.89       6.94
C       4.85       4.39       9.37
C       5.01       1.60       8.80
C       9.94       4.58       9.69
C      10.09       1.87       8.86
C       4.19      15.24       8.67
C       4.53      12.49       7.99
C       9.23      15.74       9.14
C       9.58      13.00       8.53
N      10.74       8.68       8.96
N       3.54       8.53       8.79
Cl       4.33       7.86      13.16
Cl       9.81       7.50      12.81
Cl       4.47       9.07       4.39
Cl       9.81      10.03       5.23
O       6.29       6.57       8.50
O       8.38       6.74       9.31
O       8.05       8.40       6.84
O       5.93       9.17       6.87
O       8.21      10.59       8.49
O       6.09      10.57       9.25
O       5.99       7.95      10.84
O       8.03       8.90      10.99
