80

Al       6.04      -0.02       9.96
Al       2.19      14.21       9.98
Al      -0.07       7.17       0.05
Al       3.25       7.18       0.04
H       0.46      12.60       9.43
H       4.28       1.55       9.30
H       0.74       8.68      19.38
H       4.07       5.37      19.46
H       2.00      10.00      16.73
H       6.13       4.25       3.07
H       2.84       3.98      16.86
H       2.66       9.92       3.01
H       0.32      10.92      13.48
H       4.22       3.25       6.55
H       4.64       3.32      13.41
H       0.53      11.01       6.70
C       3.86      12.63       8.19
C       3.93      12.81      11.86
C       1.10       1.49      11.76
C       1.03       1.45       8.08
C       4.93       8.69       1.89
C       4.05       8.57      18.07
C       0.73       5.46      18.11
C       1.64       5.68       1.92
C       5.06      11.28      13.58
C       2.99      10.05      16.30
C       3.96      11.95      13.05
C       4.07       9.39      16.85
C       3.36      10.76      15.14
C       4.71      10.60      14.79
C       2.31       2.95       6.43
C       0.44       4.19       3.58
C       1.17       2.29       6.89
C       1.56       4.85       3.12
C       0.71       3.49       4.77
C       2.04       3.63       5.21
C      -0.09       2.99      13.49
C       1.87       3.99      16.37
C       1.02       2.31      12.97
C       0.78       4.67      16.88
C       1.55       3.36      15.15
C       0.22       3.58      14.74
C       5.26      11.26       6.54
C       3.59      10.02       3.57
C       4.06      11.83       6.98
C       4.78       9.46       3.13
C       3.77      10.68       4.80
C       5.08      10.60       5.29
S       2.52      11.75      14.01
S       5.55       9.62      15.94
S      -0.21       2.49       5.83
S       2.96       4.63       4.14
S       2.41       2.38      14.02
S      -0.64       4.56      15.88
S       2.75      11.59       5.86
S       6.11       9.72       4.22
O       4.90      12.85       8.89
O       2.82      12.93      11.25
O       2.23       0.96      11.51
O      -0.13       0.99       8.34
O       0.05       1.38      11.05
O       2.09       1.25       8.76
O       2.68      13.06       8.45
O       5.03      13.37      11.54
O       0.52      13.42       9.94
O       4.35       0.76       9.87
O       6.09       8.25       1.57
O       2.90       8.16      18.44
O       1.82       5.66      18.74
O       0.55       5.85       1.27
O      -0.43       5.90      18.46
O       2.77       6.16       1.60
O       3.86       8.53       1.22
O       5.17       8.35      18.65
O       0.75       7.87      19.91
O       4.91       6.35       0.03
O      -0.41      11.25      12.93
O       3.48       2.93       7.10
O       5.39       3.06      12.82
O      -0.23      11.32       7.24
