178

Zr      17.27       6.58      14.23
Zr       1.76      15.61       1.46
Zr      -1.77      15.62       1.43
Zr      20.80       6.56      14.25
Zr       9.52       2.04       1.44
Zr       9.52      20.15      14.24
H       6.74       1.62       1.12
H      12.30       1.60       1.15
H       0.00      13.42       1.14
H      19.03       5.55      12.28
H       5.41       9.72       1.78
H      13.62      12.46      13.91
H       7.54       5.89       1.63
H       6.36       8.03       1.75
H      11.56      16.33      14.00
H      12.68      14.16      13.92
H       5.42      17.27       7.10
H      13.63       4.92       8.56
H       7.48      18.65      10.73
H       6.36      17.85       8.70
H      11.49       3.50       5.00
H      12.68       4.33       6.98
H       6.29      14.02      13.91
H      12.76       8.15       1.79
H      23.03      10.28      13.99
H       5.30      12.36      13.93
H      -4.06      11.94       1.64
H      13.74       9.83       1.76
H       6.28       4.40       7.09
H      12.75      17.79       8.58
H      23.09       5.53      10.71
H       5.30       4.94       8.68
H      -3.99      16.62       5.03
H      13.74      17.25       7.01
H       6.14      15.37       1.73
H      25.13       6.75      13.92
H      12.89       6.76      13.91
H      -6.10      15.37       1.72
H      16.86      11.60       7.10
H       2.18      10.56       8.57
H      17.02       9.11      10.72
H      16.89      10.49       8.70
H       2.01      13.15       5.01
H       2.14      11.70       6.99
C      16.80       9.46      15.60
C       2.23      17.86       3.71
C       2.31      12.77       0.01
C      16.72       4.27      12.04
C       5.02      22.14      15.64
C      19.10       8.19      12.04
C      14.01      22.13      15.66
C      -0.07      14.08       3.71
C       7.33       1.32       3.71
C       7.24      18.31      15.60
C      11.79      20.81      12.06
C      11.70       3.93       0.01
C       3.07      11.49       0.06
C      16.03      10.73      15.57
C       4.03      11.15       1.04
C       4.68       9.92       1.00
C      15.04      11.05      14.61
C      14.36      12.27      14.67
C       6.78       6.13       0.89
C       6.11       7.34       0.95
C      12.30      16.08      14.75
C      12.94      14.85      14.72
C       4.41       8.97       0.01
C      14.63      13.22      15.67
C       3.01      18.26       4.92
C      15.96       3.89      10.81
C       4.00      17.46       5.54
C       4.67      17.93       6.67
C      15.00       4.70      10.16
C      14.36       4.25       9.01
C       6.74      19.27      10.23
C       6.10      18.83       9.09
C      12.25       2.88       5.48
C      12.93       3.34       6.60
C       4.41      19.18       7.23
C      14.63       3.00       8.45
C       6.55      16.98      15.57
C      12.42       5.24       0.06
C       6.78      15.96      14.62
C       6.07      14.76      14.68
C      12.22       6.24       1.04
C      12.96       7.43       1.01
C      22.88      11.05      14.75
C      23.61      12.23      14.72
C      -3.89      11.16       0.89
C      -4.59       9.96       0.96
C       5.12      14.50      15.68
C      13.92       7.68       0.01
C       6.62       1.81       4.92
C      12.48      20.34      10.82
C       6.81       3.06       5.54
C       6.08       3.42       6.67
C      12.26      19.10      10.18
C      12.96      18.76       9.02
C      22.93       4.57      10.23
C      23.62       4.23       9.08
C      -3.84      17.59       5.50
C      -4.57      17.96       6.62
C       5.12       2.57       7.24
C      13.91      19.62       8.45
C       6.70      15.91       0.97
C       8.10      15.91       1.00
C       8.85      15.20       2.02
C      25.69       6.22      14.68
C      27.10       6.25      14.67
C       8.80       6.97      13.66
C      12.33       6.22      14.67
C      10.92       6.25      14.66
C      10.18       6.98      13.66
C      -6.66      15.91       0.97
C      -8.07      15.91       1.00
C      10.23      15.21       2.02
C      15.51      22.14      15.66
C      18.32      22.17      15.68
C       3.52      22.15      15.65
C       0.71      22.18      15.68
C      -0.12      13.21       4.92
C      19.15       9.05      10.81
C      -1.30      12.74       5.55
C      -1.24      11.92       6.67
C      20.33       9.48      10.17
C      20.27      10.27       9.02
C      17.93       9.44      10.23
C      17.87      10.22       9.09
C       1.10      12.80       5.49
C       1.16      11.98       6.61
C      -0.02      11.52       7.24
C      19.05      10.66       8.45
Br      11.20      14.28       3.36
Br       7.89      14.28       3.36
Br      11.14       7.93      12.34
Br       7.83       7.93      12.34
Cl       4.50      12.19       2.35
Cl      14.56      10.01      13.31
Cl       4.48      15.89       5.00
Cl      14.53       6.28      10.70
Cl       7.91      16.08      13.31
Cl      11.10       6.12       2.36
Cl       7.94       4.26       4.99
Cl      11.13      17.91      10.72
Cl      -2.90      13.12       5.00
Cl      21.93       9.09      10.71
O      16.58       8.61      14.68
O       2.45      16.71       3.22
O       2.56      13.64       0.92
O      16.47       5.41      12.55
O      -3.90      15.93       0.89
O      20.21       7.84      12.57
O      22.93       6.16      14.72
O      -1.18      14.46       3.20
O       8.22       2.09       3.20
O       8.10      18.53      14.69
O      10.93      20.03      12.57
O      10.82       3.71       0.90
O      -2.56      13.57       0.86
O      21.59       5.33      12.50
O      21.53       8.66      14.77
O      -2.49      16.82       3.24
O      15.10       6.17      14.73
O       1.09      14.38       3.25
O       3.93      15.94       0.91
O      17.94       7.86      12.47
O       8.08      20.07      12.48
O       8.13       3.75       0.88
O      10.90       2.08       3.24
O      10.95      18.46      14.76
O      19.03       5.55      13.24
O      -0.00      14.34       0.81
O      11.51       1.14       0.82
O       7.52       1.16       0.80
O       0.00      16.63       1.80
O      19.03       7.24      15.08
O      10.98      21.34      15.09
O       8.05      21.34      15.08
