68

Cu       4.21       6.86       6.86
Si       8.41       6.86       6.86
H       2.17       8.97       7.35
H       6.25       8.97       6.36
H       2.17       4.75       6.36
H       6.25       4.75       7.36
H       2.18       6.36       8.97
H       6.25       7.36       8.97
H       2.17       7.36       4.75
H       6.25       6.36       4.75
C       3.08       9.55       7.13
C       3.06      10.93       7.10
C       4.21      11.70       6.86
C       5.37      10.93       6.61
C       5.35       9.55       6.58
C       4.21      13.11       6.86
C       4.21       0.61       6.86
C       4.21       2.02       6.86
C       3.05       2.79       6.61
C       3.07       4.17       6.58
C       5.35       4.17       7.13
C       5.37       2.78       7.10
C       3.08       6.58       9.55
C       3.06       6.62      10.93
C       4.21       6.86      11.70
C       5.37       7.10      10.93
C       5.35       7.14       9.55
C       4.21       6.86      13.11
C       4.21       6.86       0.61
C       4.21       6.86       2.02
C       3.05       7.10       2.78
C       3.07       7.13       4.17
C       5.34       6.58       4.17
C       5.36       6.62       2.78
N       4.21       8.88       6.86
N       4.21       4.84       6.86
N       4.21       6.86       8.88
N       4.21       6.86       4.84
N       6.66      11.61       6.40
N       1.77      11.61       7.31
N       6.65       2.11       7.31
N       1.76       2.11       6.40
N       6.66       7.32      11.61
N       1.77       6.40      11.61
N       6.65       6.40       2.11
N       1.76       7.31       2.11
O       6.99      12.40       7.29
O       7.27      11.31       5.37
O       1.43      12.40       6.43
O       1.15      11.31       8.34
O       6.99       1.32       6.43
O       7.27       2.41       8.34
O       1.43       1.32       7.29
O       1.15       2.40       5.37
O       7.00       6.43      12.40
O       7.27       8.35      11.31
O       1.43       7.29      12.40
O       1.16       5.37      11.31
O       6.99       7.29       1.32
O       7.27       5.37       2.40
O       1.43       6.43       1.32
O       1.15       8.35       2.41
F       1.79       6.86       6.86
F       6.63       6.86       6.85
F       0.01       8.06       5.66
F       8.41       5.66       8.06
F       8.41       8.06       8.06
F       0.01       5.66       5.66
