162

Zr      -0.06       3.25       2.51
Zr       0.98       2.97      17.21
Zr      17.04      -0.01       1.16
Zr       2.81       1.30       1.80
Zr      15.21       1.67      16.57
Zr       0.62      -0.28      15.86
H      11.91       0.94       6.77
H      12.15       0.76      11.07
H      15.70       0.18       8.69
H       2.33       2.60       9.75
H       5.79       1.95       7.27
H       6.17       1.88      11.56
H       5.38      12.36      17.17
H       9.66      12.88      17.28
H       7.09      16.27      16.54
H       9.91       4.14       1.65
H       7.26       7.44       0.82
H      11.52       8.10       1.04
H      -0.92       7.61      11.88
H      -1.04      11.89      12.44
H      15.50       9.26      15.73
H       0.47      12.77       6.56
H       0.49       8.51       5.92
H       1.30      11.19       2.64
H       2.67       4.02       2.59
H      15.05       1.95       1.60
H       1.04      16.34       0.44
H      -0.17       2.23      14.74
H      15.59      11.70      10.30
H       0.81       8.32      10.46
H       1.40       8.68       8.10
H      -1.27      12.06       7.94
H      10.75      10.05       1.96
H       6.45       7.95      16.66
H       6.12      10.35      16.21
H      10.43      12.45       1.51
H       9.85      -0.06       7.32
H      10.58       2.41      10.78
H       8.17       2.84      10.98
H       7.44       0.37       7.52
C      13.87       0.53       7.59
C      12.48       0.77       7.69
C      11.85       0.87       8.93
C      12.62       0.70      10.09
C      14.00       0.45      10.01
C      14.63       0.36       8.76
C       4.20       2.27      10.80
C       3.40       2.41       9.65
C       3.98       2.29       8.38
C       5.36       2.03       8.26
C       6.17       1.90       9.40
C       5.57       2.02      10.66
C       6.09      14.36      16.82
C       6.26      12.99      17.07
C       7.54      12.44      17.24
C       8.65      13.28      17.16
C       8.50      14.66      16.90
C       7.22      15.20      16.72
C      10.86       6.08       1.39
C       9.76       5.20       1.45
C       8.47       5.70       1.24
C       8.28       7.07       0.97
C       9.37       7.95       0.91
C      10.66       7.44       1.12
C      16.02       8.29      13.86
C      -1.08       8.48      12.51
C      -0.95       9.77      11.98
C      -1.17      10.87      12.81
C      -1.55      10.70      14.16
C      15.77       9.40      14.68
C       0.89      12.13       4.55
C       0.59      11.91       5.91
C       0.46      10.61       6.42
C       0.63       9.53       5.56
C       0.94       9.72       4.20
C       1.07      11.03       3.69
C      15.73       0.92       4.00
C       1.14       6.21       2.18
C       2.20       2.45       4.74
C      14.61       4.52       1.35
C       2.41       1.99      14.43
C      -1.81      14.23      16.13
C       4.95       3.70       1.16
C      -1.22       4.59      15.51
C      13.13      -0.80      17.05
C       0.65      15.86       2.98
C       2.38      16.00      16.98
C      15.74       0.35      13.67
C       0.94      13.45       4.05
C       0.91      14.59       3.61
C       1.15       7.53       2.75
C       1.08       8.58       3.37
C      15.61      12.92      15.54
C      15.71      11.85      14.96
C      15.98       5.86      14.88
C      15.96       6.98      14.40
C      -1.13      11.05       9.83
C      -0.58       9.98      10.56
C       0.33       9.13       9.91
C       0.67       9.34       8.57
C       0.11      10.40       7.84
C      -0.79      11.25       8.50
C      12.18       5.58       1.52
C      13.32       5.14       1.56
C       7.32       4.87       1.28
C       6.27       4.26       1.27
C       9.67      15.46      16.85
C      10.74      16.05      16.88
C       3.67      15.39      16.74
C       4.79      14.91      16.73
C       9.98      10.36       1.25
C       9.16       9.39       0.64
C       7.08       8.68      17.17
C       6.89      10.03      16.92
C       8.79      12.16       0.13
C       9.80      11.72       1.00
C       3.61       2.32      12.09
C       3.11       2.28      13.20
C       2.67       2.47       6.10
C       3.22       2.41       7.19
C      15.25       0.27      12.33
C      14.73       0.32      11.23
C      14.50       0.53       6.32
C      15.04       0.60       5.23
C       9.49       0.59       8.11
C      10.40       1.14       9.04
C       9.89       1.94      10.07
C       8.53       2.19      10.19
C       7.62       1.64       9.27
C       8.12       0.84       8.23
O      15.88       0.02       3.12
O       1.81       5.99       1.12
O       1.12       3.06       4.45
O      15.41       4.39       2.33
O      14.79       4.10       0.15
O       2.95       1.81       3.93
O       0.44       5.36       2.83
O      16.12       2.14       3.93
O       0.14       3.73       0.51
O       0.77       1.38       2.15
O       2.14       3.47       1.99
O      15.96       1.99       1.27
O       2.24       2.91      15.29
O      15.00      14.44      17.21
O       4.68       2.60       1.75
O      15.32       3.71      15.54
O      13.39       0.32      16.50
O       1.58      16.74       2.92
O       1.55      16.10      16.02
O      -0.61      -0.22      13.96
O       4.37       0.12       0.79
O      15.01       1.04      14.47
O       4.13       4.40       0.47
O      -0.52      15.97       2.49
O      13.91      17.10       0.39
O      -0.03       4.48      15.98
O       1.99       0.79      14.51
O      -1.09      15.07      15.49
O      16.23      -0.12      16.79
O       1.45       0.96      17.31
O       0.65      17.23       0.46
O      -0.19       1.84      15.63
