184

Zr      -7.72      10.02      14.18
Zr       7.76       1.02       1.45
Zr      11.30       1.02       1.44
Zr     -11.25      10.03      14.19
Zr       0.02      14.54       1.44
Zr       0.02      -3.50      14.19
H       2.81      14.97       1.13
H      -2.76      14.98       1.14
H       9.54       3.21       1.14
H      -9.49      11.04      12.22
H       5.38       4.70       1.73
H       4.17       6.84       1.77
H      -5.38       6.32      13.86
H      -4.12       4.20      13.87
H       1.98      10.63       1.73
H       3.22       8.51       1.77
H      -1.98       0.38      13.86
H      -3.17       2.54      13.87
H       5.43       0.09       5.04
H       4.16      -0.62       7.03
H      -5.34      10.98      10.62
H      -4.13      11.66       8.59
H       2.02      -1.89      10.64
H       3.21      -1.18       8.60
H      -1.93      12.96       5.03
H      -3.18      12.21       7.02
H       2.04       0.38      13.86
H       3.22       2.54      13.87
H      -1.95      10.63       1.73
H      -3.19       8.51       1.77
H     -13.60       6.32      13.86
H       4.18       4.21      13.87
H      13.69       4.70       1.73
H      -4.15       6.84       1.77
H       1.99      12.97       5.03
H       3.23      12.22       7.02
H      -2.00      -1.90      10.64
H      -3.18      -1.18       8.60
H     -13.64      10.98      10.63
H       4.19      11.66       8.59
H      13.64       0.09       5.04
H      -4.14      -0.62       7.03
H       3.38       1.28       1.76
H       1.24       1.95       2.77
H     -15.55       9.86      13.90
H      -3.33       9.81      13.84
H      -1.19       9.08      12.86
H      15.61       1.24       1.70
H      11.68       3.52       5.04
H      -7.34       4.97       7.03
H     -11.64       7.47      10.63
H       7.38       6.08       8.60
H      -7.35       7.47      10.63
H      -7.34       6.08       8.60
H       7.40       3.52       5.04
H       7.38       4.97       7.02
H      -1.09       1.83       4.12
H      -2.47       2.17       3.08
H      -1.09       3.27       3.10
H       1.15       7.77      12.53
H       2.53       8.87      12.56
H       1.15       9.21      11.51
C      -7.29       7.12      15.60
C       7.33      -1.28       3.71
C      -2.25      -1.67      15.60
C       2.30      -4.22      11.99
C       4.53      -5.52      15.58
C      -9.49       8.40      11.99
C      -4.48      -5.48      15.62
C       9.54       2.55       3.71
C      11.73      -1.28       3.70
C       2.31      -1.67      15.59
C      -2.27      -4.22      12.00
C     -11.69       7.12      15.60
C      -2.98      -0.37      15.61
C      -6.54       5.83      15.61
C       5.57       5.45       0.97
C       4.90       6.66       0.98
C      -5.57       5.57      14.63
C      -4.87       4.37      14.65
C       2.72      10.42       0.97
C       3.43       9.23       0.98
C      -2.72       0.60      14.63
C      -3.40       1.81      14.64
C       5.14       7.65       0.00
C       4.40       8.94       0.00
C       6.58      -1.72       4.91
C       3.02      -3.79      10.76
C       5.61      -0.89       5.49
C       4.90      -1.30       6.61
C      -5.53      11.95      10.17
C      -4.86      12.34       9.02
C       2.76      -2.55      10.18
C       3.44      -2.16       9.03
C      -2.68      13.61       5.48
C      -3.39      13.20       6.60
C      -4.37      14.03       7.21
C      -5.10      13.60       8.42
C       3.04      -0.37      15.61
C     -12.44       5.84      15.61
C       2.78       0.60      14.63
C       3.45       1.81      14.65
C      -2.70      10.42       0.97
C      -3.41       9.23       0.98
C     -13.41       5.57      14.63
C     -14.12       4.38      14.65
C      13.49       5.45       0.97
C      14.16       6.67       0.98
C      13.92       7.65       0.00
C      -4.38       8.94       0.00
C      12.48      -1.72       4.91
C      -3.00      -3.79      10.77
C       2.74      13.61       5.48
C       3.45      13.20       6.61
C      -2.74      -2.55      10.18
C      -3.41      -2.16       9.03
C     -13.45      11.95      10.17
C     -14.12      12.34       9.02
C      13.45      -0.88       5.49
C      14.15      -1.30       6.61
C       4.42      14.03       7.21
C     -13.88      13.60       8.42
C       2.83       0.73       0.99
C       1.43       0.72       1.00
C       0.68       1.41       2.00
C     -16.16      10.37      14.64
C     -17.56      10.33      14.61
C       0.75       9.60      13.59
C      -2.77      10.35      14.61
C      -1.37      10.33      14.62
C      -0.62       9.62      13.63
C      16.21       0.71       0.96
C      17.61       0.73       1.02
C      -0.69       1.44       2.04
C      -5.97      -5.50      15.63
C     -18.28      11.04      15.62
C      -3.48      11.06      15.59
C      18.34       0.01       0.01
C       9.54       3.42       4.92
C      -9.50       7.55      10.76
C      10.75       3.84       5.49
C      10.74       4.67       6.61
C     -10.70       7.15      10.17
C     -10.70       6.37       9.02
C      -8.29       7.15      10.17
C      -8.30       6.37       9.02
C       8.33       3.84       5.49
C       8.34       4.66       6.61
C       9.54       5.10       7.21
C      -9.50       5.95       8.42
C      -1.38       2.21       3.14
C       1.44       8.83      12.50
O      -7.01       7.95      14.67
O       7.06      -0.12       3.23
O       6.97       3.04       0.90
O      -6.93      11.21      12.46
O      13.44       0.68       0.88
O     -10.63       8.74      12.47
O     -13.39      10.44      14.69
O      10.68       2.21       3.22
O       1.37      14.49       3.22
O       1.45      -1.85      14.67
O      -1.41      -3.41      12.47
O      -1.33      12.85       0.90
O      12.10       3.03       0.89
O     -12.05      11.21      12.47
O     -11.97       7.96      14.67
O      12.02      -0.13       3.22
O      -5.56      10.41      14.65
O       8.40       2.22       3.23
O       5.61       0.71       0.92
O      -8.36       8.74      12.46
O       1.43      -3.40      12.47
O       1.36      12.85       0.90
O      -1.32      14.49       3.22
O      -1.39      -1.85      14.67
O      -9.49      11.04      13.19
O       9.53       2.30       0.81
O      -1.97      15.44       0.82
O       2.02      15.43       0.81
O       9.53       0.00       1.80
O      -9.48       9.35      15.03
O      -1.45      -4.69      15.04
O       1.49      -4.70      15.03
