134

Zn       2.88       7.58       8.26
Zn       4.89       9.98       8.62
Zn       4.84       7.60      10.80
Zn       2.49       9.71      10.71
H       2.98       7.39       4.06
H       8.13       8.35       7.49
H       5.47       4.88       6.81
H       7.23       4.93       6.61
H       6.34       3.42       6.29
H       6.68       4.77       9.05
H       7.53       3.33       8.51
H       0.16       5.45      16.06
H       0.94       5.23      17.64
H      -0.80       5.57      17.55
H       0.47       7.61      18.24
H       3.11       7.75       1.57
H      -0.34       7.87      16.70
H       0.07       6.33      12.66
H       1.83       6.45      12.71
H       0.99       5.51      13.94
H      -0.16       7.60      14.78
H       0.69       8.56      13.58
H       6.57       7.15      18.75
H       5.72      12.98       3.74
H       7.17      11.96       3.59
H       6.94      13.34       2.50
H       5.39      10.89       4.67
H       6.41      11.27       1.25
H       4.98      12.24       1.43
H       6.32       7.04      14.00
H       7.63       8.19      14.34
H       6.91       7.26      15.66
H       5.49       9.41      13.97
H       6.08       9.65      15.61
H      -0.81      13.65       8.29
H       0.90       0.85       8.05
H       1.97      -0.57       8.12
H      -1.47       9.49      10.86
H       0.41      -0.60       8.98
H       2.28      -0.21      10.58
H       1.22       1.20      10.53
H      -0.00       3.81       9.51
H       7.46      13.53      10.39
H       8.59       0.70       8.70
H       4.37      17.76      12.19
H       5.23      16.28      12.68
H       6.13      17.79      12.42
H       6.46      16.32      10.43
H       1.18      16.31       8.86
H       5.51      17.76      10.00
H      -0.44       7.73       6.33
H      -0.48       6.18       7.16
H       8.96       6.62       6.05
H       8.20       6.85       8.39
C       3.44      12.29       9.72
C       3.32      13.79       9.70
C       4.42      14.56      10.09
C       4.13       5.14       9.32
C       4.38      15.97      10.06
C       3.21       8.25      14.68
C       4.34       8.43      15.50
C       4.19       8.19      16.87
C       2.93       7.83      17.39
C       1.79       7.67      16.56
C       1.94       7.87      15.18
C       5.44       3.03       8.92
C       3.59       8.44       2.27
C       3.52       8.24       3.64
C       4.29       9.54       1.75
C       4.11       8.95       5.97
C       4.18       9.13       4.50
C       4.89      10.22       3.97
C       4.97      10.45       2.60
C       3.39       8.43      13.20
C       7.30       9.00      10.00
C       0.25       8.42       9.28
C       5.51       1.63       8.95
C      -1.24       8.36       9.09
C       8.79       8.99      10.03
C       4.22       3.64       9.28
C       8.83       7.63       7.94
C      -1.10       7.01       6.81
C       6.59       3.88       8.41
C       6.39       4.30       6.95
C       0.47       7.31      17.19
C       0.17       5.80      17.10
C       0.78       7.67      14.22
C       4.38       0.87       9.33
C       0.93       6.42      13.34
C       5.40       8.26      17.76
C       5.70      11.63       2.01
C       6.42      12.52       3.02
C       5.66       8.90      14.93
C       6.69       7.78      14.72
C       1.03      13.59       8.69
C       1.94       0.62       9.95
C       1.26       0.04       8.70
C       1.83       3.64       9.91
C       3.13       1.48       9.60
C       5.61      13.81      10.63
C       6.74       0.96       8.40
C       5.50      16.83      10.57
C       5.29      17.18      12.06
C       3.07       2.88       9.56
C       2.07      15.80       9.22
C       2.14      14.41       9.25
C       3.17      16.57       9.62
N       4.40      -0.53       9.46
N       3.15      17.98       9.57
N       2.71       7.63      18.77
N       4.40       9.78       0.37
O       3.78       8.71       9.60
O       6.76       9.84       9.22
O       0.68       9.21      10.18
O       6.73       8.15      10.75
O       0.96       7.67       8.52
O       6.09       9.25      17.96
O       5.77       7.01      18.19
O       1.15      12.48       8.21
O      -0.17      14.24       8.74
O       1.79       4.56      10.71
O       0.73       3.23       9.21
O       3.30       8.06       6.41
O       5.55      13.02      11.55
O       6.77      14.08       9.96
O       6.79       0.47       7.28
O       7.84       1.09       9.21
O       2.73       9.36      12.63
O       4.32      11.83       8.93
O       4.82       5.72      10.21
O       2.69      11.66      10.53
O       3.39       5.68       8.44
O       4.87       9.70       6.69
O       4.20       7.63      12.64
