220

Zn       7.54       8.99      15.57
Zn      27.04      10.78      18.25
Zn       9.02      11.84      15.72
Zn      25.53      11.73      15.60
Zn      18.37       7.27       8.85
Zn      16.87       4.40       8.69
Zn      18.60       5.48       6.19
Zn      20.06       4.53       8.85
Zn      16.17      16.30      22.45
Zn      17.71      15.38      25.11
Zn      15.97      18.08      25.11
Zn      14.51      15.25      24.97
Zn      17.67       4.98      32.01
Zn      14.46       4.85      31.84
Zn      24.85      19.85      31.86
Zn      18.37      17.67       1.95
H      20.83       9.41      11.41
H       5.10       6.86      13.01
H      13.74      14.78      19.50
H       9.78      12.31      21.20
H      14.43       2.88       1.61
H      13.89       2.54       6.53
H      11.49       3.58      29.30
H      20.67      16.63      27.68
H      23.07      11.01      13.61
H      22.53       5.25      10.81
H      11.51      13.39      17.15
H      12.02      13.71      23.54
H      16.86       4.40       3.67
H      11.46       1.02       4.47
H      17.70      20.00      27.10
H      23.11      17.93      29.88
C       7.45       7.82      18.28
C       9.87      12.36      18.53
C      10.15       9.53      14.29
C      27.10      13.85      14.29
C      24.71       9.33      14.01
C      24.43      12.16      18.29
C      15.77       6.73      10.13
C      16.08       3.90       5.86
C      18.49       8.43       6.13
C      21.19       4.09       6.16
C      20.89       6.93      10.41
C      18.49       2.40      10.14
C      18.78      14.94      22.40
C      18.49      17.79      26.68
C      16.08      19.26      22.42
C      13.37      17.57      26.41
C      13.66      14.73      22.16
C      16.11      13.25      26.41
C      16.05       6.98      30.56
C      22.33      20.14      30.29
C      27.44      20.36      30.56
C      18.49      14.72       2.00
C      12.24       1.52       2.28
C       7.12       1.34       1.98
C      23.72       8.74      13.09
C      21.88       7.53      11.33
C      22.59       9.47      12.63
C      23.02       6.79      11.79
C      21.69       8.85      11.76
C      23.91       7.41      12.66
C      10.85      12.98      19.45
C      12.68      14.12      21.25
C      11.98      13.68      18.95
C      11.54      13.41      21.74
C      12.87      14.24      19.87
C      10.65      12.85      20.83
C      12.41       9.61      13.05
C      13.51       6.65      11.38
C      11.25       8.99      13.48
C      14.67       7.27      10.94
C      12.68       7.49      12.14
C      13.24       8.77      12.28
C      23.18      12.70      20.47
C      20.03      14.39      20.22
C      23.33      12.70      19.09
C      19.88      14.39      21.60
C      21.23      13.77      19.80
C      21.98      13.32      20.89
C       7.38       6.47      20.47
C       7.50       2.90      20.23
C       7.44       6.60      19.09
C       7.43       2.77      21.61
C       7.48       4.25      19.81
C       7.40       5.12      20.90
C      26.03      15.76      12.94
C      28.21      18.20      11.49
C      27.10      15.07      13.48
C      27.14      18.90      10.95
C      27.82      17.06      12.22
C      26.42      16.91      12.21
C      15.11       3.30       4.92
C      13.21       2.12       3.21
C      15.27       3.40       3.51
C      13.05       2.02       4.63
C      14.32       2.80       2.69
C      14.01       2.61       5.45
C      18.55       9.79       3.94
C      18.42      13.35       4.19
C      18.48       9.65       5.32
C      18.49      13.49       2.81
C      18.44      12.01       4.61
C      18.53      11.13       3.52
C       3.77       2.91       5.77
C       4.87       2.51       2.38
C       2.61       3.55       5.35
C       6.03       1.87       2.80
C       4.03       2.89       3.46
C       4.60       2.53       4.69
C      19.46      18.41      27.61
C      21.35      19.52      29.37
C      19.30      19.75      28.07
C      21.51      18.18      28.91
C      20.25      20.27      28.94
C      20.56      17.65      28.04
C      17.18      11.33      27.76
C      14.99       8.90      29.21
C      16.10      12.03      27.22
C      16.06       8.20      29.75
C      15.38      10.04      28.48
C      16.78      10.19      28.49
C      30.79      17.48      27.65
C      29.69      20.45      29.32
C      31.96      18.11      27.22
C      28.53      19.82      29.75
C      30.53      19.60      28.56
C      29.96      18.33      28.42
S      11.16       7.33      12.94
S      14.76       8.93      11.48
S      21.98      13.45      18.28
S      21.23      13.64      22.41
S       7.53       5.06      18.29
S       7.35       4.31      22.42
S      28.63      15.82      13.10
S      25.62      18.14      11.33
S      18.39      11.19       6.13
S      18.58      11.95       2.00
S       2.52       3.69       3.62
S       6.12       1.73       4.53
S      14.58      11.28      27.60
S      17.59       8.95      29.37
S      32.04      19.76      27.76
S      28.44      18.17      29.21
O       7.44      10.82      16.28
O       7.53       7.65      17.01
O       8.88      11.73      19.04
O      10.24      10.75      14.65
O       7.37       8.93      18.91
O       9.20       8.71      14.55
O      10.07      12.50      17.26
O       8.57      13.43      14.66
O      24.49      10.55      14.39
O      25.96      13.33      14.55
O      25.70       8.63      14.38
O      25.40      11.61      18.91
O      24.30      12.29      17.02
O      18.47       5.43       8.15
O      16.72       7.55       9.87
O      15.89       3.77       7.11
O      18.57       7.32       5.51
O      15.68       5.51       9.78
O      18.40       8.60       7.40
O      17.09       4.54       5.33
O      20.23       4.63       5.51
O      21.10       5.70      10.04
O      21.29       3.97       7.43
O      19.90       7.63      10.04
O      17.34       2.83       9.76
O      19.63       2.92       9.89
O      16.09      16.26      24.42
O      17.82      15.48      21.78
O      18.69      16.59      26.30
O      16.00      19.43      23.69
O      18.91      14.80      23.67
O      16.15      18.15      21.80
O      17.48      18.52      26.32
O      14.33      18.38      26.16
O      13.45      14.60      23.44
O      13.28      16.35      26.04
O      14.65      15.35      21.66
O      17.24      13.77      26.14
O      14.95      13.67      26.04
O      16.07       3.97      32.55
O      17.21       6.55      30.92
O      22.13      21.34      30.66
O      26.48      19.55      30.83
O      14.92       6.46      30.82
O      18.87       3.87      30.93
O      23.34      19.41      30.66
O      18.57      14.55       0.74
O      11.23       0.89       2.80
O      18.41      15.83       2.63
O      12.43       1.64       1.03
O       7.02       1.45       0.72
O       8.08       0.79       2.64
O      22.33      10.75      12.99
O      23.27       5.51      11.42
O      12.24      13.85      17.63
O      11.28      13.25      23.06
O      16.30       4.04       2.92
O      12.02       1.37       5.22
O      18.26      20.54      27.71
O      22.55      17.38      29.27
F      12.73      10.89      13.32
F      13.18       5.37      11.11
F      24.06      12.19      21.34
F      19.15      14.90      19.35
F       7.30       7.49      21.34
F      16.23      19.59      19.37
F      24.74      15.41      13.07
F      29.50      18.56      11.36
F      18.62       8.76       3.08
F      18.35      14.38       5.06
F       4.09       2.68       7.05
F       4.54       2.75       1.11
F      18.46      11.69      27.62
F      13.70       8.54      29.34
F      30.47      16.21      27.37
F      21.37       4.01      29.59
