132

Zn       1.10      -0.77      10.63
Zn      -1.65       1.15      10.63
Zn       3.49       8.02       1.67
Zn       6.24       6.11       1.68
H       3.32       1.44      10.28
H      -3.74       3.73      10.04
H       0.23      -3.86       8.19
H       5.17       2.17       2.53
H       3.70       3.05       4.17
H       2.76       2.76       2.67
H       3.33       4.40       3.09
H       2.27       8.42       5.40
H       0.16       7.43       5.09
H       1.13       6.15       5.88
H       0.89       6.14       4.12
H      -4.98      -1.21       9.78
H       4.79      10.87       2.03
H      -3.59      -3.27       9.64
H      -2.25      -2.17       9.22
H      -3.64      -2.29       8.13
H       9.38       5.04       2.27
H       1.42       5.71       2.21
H      -2.58       0.67       7.42
H      -0.35      -3.51      10.09
H       6.11       5.07       4.88
H       8.96      -2.77      10.53
H       2.54       7.06       7.43
H       4.08       0.63       1.78
H       0.53      -1.99       4.87
H       1.58       5.89       9.26
H       6.59      -2.97      10.58
H      -5.44      10.78       3.04
H      -0.48      12.41       1.72
H      -0.97       4.97       1.14
H       4.39       4.65       6.98
H      -0.21      -6.01      11.16
H      -2.37      -1.09       5.32
H       3.60       3.64       8.70
H      11.89       4.91       1.16
H       6.76      11.90       3.60
H      -4.73       6.04      11.15
H       0.62      10.48       2.78
H       7.19      -2.10       3.96
H       6.86      -1.27       2.40
H       3.19      11.93       2.65
H       9.09       8.80       3.08
H      10.56       7.93       1.43
H       9.78       9.41       0.77
H       9.18       7.79       0.31
H       4.40      -2.61       9.52
H       5.33      -0.80       8.35
H       6.22      -0.82       9.90
H       4.87       0.31       9.66
H      -0.11       4.76       9.22
H      -1.44       5.83      10.88
H       0.22       5.61      11.53
H      -1.09       4.50      11.99
H       1.89      -1.78       6.91
H      -3.50       9.98       7.22
H      -5.04      10.45       6.42
C       2.33       1.90      10.34
C      -3.62       3.54      11.10
C       5.56      10.10       1.96
C       9.16       5.09       1.21
C       1.61       5.81       1.15
C      -1.66       0.14       7.66
C      -0.33      -3.30      11.16
C       5.30       5.75       4.65
C       1.60      10.40       1.01
C       7.41       8.88       2.05
C       3.98      -1.71      11.29
C       0.54       3.21      10.26
C       0.14      -1.16       7.71
C       4.88       3.47       1.07
C       3.46       6.99       4.59
C      -3.65      -1.04      11.24
C       1.93       3.19       9.95
C      -4.14       4.27      12.19
C       6.91      10.18       2.36
C      10.03       4.85       0.12
C       0.83       5.34       0.07
C      -0.92      -0.74       6.85
C      -0.50      -4.19      12.24
C       4.21       6.14       5.45
C       8.50      -2.51      11.48
C       2.98       6.09       7.64
C       4.49       0.28       0.83
C      -0.54      -1.92       4.67
C       2.40       5.37       8.76
C       7.05      -2.62      11.51
C      -6.21      11.37       3.54
C      -0.31      12.97       0.79
C      -0.50       4.81       0.17
C       3.90       5.61       6.76
C      -0.53      -5.62      12.14
C      -1.31      -1.22       5.55
C       2.71       4.10       9.15
C      11.45       4.61       0.20
C       7.50      11.22       3.16
C      -4.85       5.52      12.10
C       2.11      11.91       2.87
C       9.60       8.38       1.14
C       5.23      -0.71       9.44
C      -0.68       5.09      11.17
C       0.79      -3.48       7.32
C       3.59       3.34       3.12
C       1.05       6.79       4.99
C      -3.33      -2.29       9.19
N       1.29       1.22      10.84
N      -2.87       2.51      11.53
N       5.29       8.89       1.46
N       7.94       5.44       0.77
N       2.69       6.46       0.70
N      -1.11       0.25       8.88
N      -0.09      -2.06      11.61
N       5.21       6.31       3.43
N       2.36       9.36       0.59
N       6.42       8.13       1.53
N       2.75      -1.36      11.71
N       0.18       2.02      10.78
N       0.00      -0.55       8.91
N       5.14       4.73       0.67
N       4.07       7.07       3.40
N      -2.56      -0.36      11.64
N       1.55      10.64       2.41
N       8.68       8.32       2.28
N       4.23      -1.68       9.90
N      -0.42       4.21      10.02
N       1.19      -2.09       7.57
N       4.88       3.14       2.43
N       2.21       7.65       4.74
N      -3.96      -1.15       9.87
