92

Al       3.87      13.94       0.00
Al       3.87      13.94      16.09
H       0.70      12.35      12.30
H       0.76      12.45       9.79
H       3.00      16.14      10.03
H       3.00      11.74       6.07
H       0.76      15.42       6.31
H       0.70      15.53       3.80
H       0.70      11.44      19.37
H       0.76       9.22      20.54
H       3.00       7.58      17.22
H       3.00       6.35      23.02
H       0.76       4.72      19.70
H       0.70       2.49      20.87
H       0.70      18.02      16.62
H       0.76      -7.73      17.96
H       3.00      -9.79      21.03
H       3.00      -4.15      19.20
H       0.76      -6.21      22.27
H       0.70      -4.08      23.62
H       3.28      15.85      13.54
H       3.28      12.03       2.55
H       3.28      10.77      15.72
H       3.28      17.10       0.38
H       3.28      15.20      19.02
H       3.28      -1.26      21.21
C       1.87      -1.75      23.02
C       1.87      13.84       2.07
C       1.87       1.84      23.19
C       1.87      14.03      14.02
C       1.87      12.10      17.05
C       1.87      15.69      17.21
C       1.91      14.12      12.56
C       1.23      13.15      11.78
C       1.26      13.20      10.40
C       1.90      14.30       9.78
C       2.51      15.30      10.53
C       2.58      15.19      11.92
C       2.51      12.58       5.57
C       1.90      13.58       6.32
C       1.26      14.67       5.70
C       1.23      14.73       4.32
C       1.91      13.76       3.53
C       2.58      12.69       4.18
C       1.91      10.79      17.71
C       1.23      10.60      18.94
C       1.26       9.37      19.58
C       1.90       8.29      18.94
C       2.51       8.44      17.70
C       2.58       9.70      17.10
C       2.51       5.50      22.54
C       1.90       5.65      21.30
C       1.26       4.56      20.66
C       1.23       3.34      21.30
C       1.90       3.15      22.53
C       2.58       4.24      23.14
C       1.91      16.91      18.01
C       1.23      -9.81      17.57
C       1.26      -8.64      18.31
C       1.90      -8.65      19.56
C       2.51      -9.80      20.06
C       2.58     -10.95      19.27
C       2.51      -4.14      20.18
C       1.90      -5.29      20.67
C       1.26      -5.30      21.93
C       1.23      -4.13      22.67
C       1.90      -2.97      22.22
C       2.58      -2.99      20.97
N       1.94      14.48       8.38
N       1.94      13.40       7.72
N       1.94       6.99      19.49
N       1.94       6.95      20.75
N       1.94      -7.52      20.42
N       1.94      -6.41      19.82
O       2.79       1.59      24.07
O       2.79      -0.86      22.80
O       2.79      13.21       1.41
O       0.93       1.02      22.90
O       0.93      14.50       1.50
O       0.93      -1.58      23.88
O       2.79      14.79      17.43
O       2.79      14.67      14.68
O       2.79      12.35      16.17
O       0.93      15.52      16.35
O       0.93      12.92      17.33
O       0.93      13.37      14.59
O       3.26      16.14      12.59
O       3.26      11.74       3.50
O       3.26       9.80      15.94
O       3.26      18.07       0.16
O       3.26      15.87      19.75
O       3.26      -1.93      20.48
