140

Al       5.69      15.00      11.64
Al       2.37      14.97      11.59
Al       2.34      21.91       0.04
Al       5.66       8.06      23.19
H       1.24      12.40      22.07
H       4.54      17.57       1.16
H       1.52      15.06      18.16
H       4.84      14.91       5.07
H       1.43      14.26      20.44
H       4.74      15.71       2.79
H       0.32       9.67      18.88
H       3.64      20.30       4.35
H       0.34      10.88      12.95
H       3.66      19.09      10.28
H       0.28       9.34      16.96
H       3.60      20.63       6.27
H       0.14       8.96      14.54
H       3.46      21.01       8.69
H       2.84      26.54      21.08
H       6.15       3.44       2.15
H       2.87      24.50      19.60
H       6.18       5.47       3.63
H       5.26      24.88      19.01
H       1.93       5.09       4.22
H       5.24      26.91      20.50
H       1.92       3.06       2.73
H       2.79      20.62      15.11
H       6.11       9.35       8.12
H       2.78      18.69      13.50
H       6.10      11.28       9.72
H       5.28      17.96      14.39
H       1.96      12.02       8.84
H       5.29      19.87      16.02
H       1.97      10.11       7.20
H       3.15      15.48      16.44
H       1.78      16.65      16.50
H       2.64      16.34      14.95
H       6.47      14.49       6.78
H       5.10      13.32       6.73
H       5.95      13.63       8.28
H       4.01      14.52      13.26
H       0.69      15.45       9.97
H       3.97       8.54      21.57
H       0.64      21.43       1.66
C       4.03      12.97      10.24
C       0.72      17.00      12.98
C       4.05      16.57       9.78
C       0.73      13.40      13.45
C       1.20      13.25      20.10
C       4.51      16.72       3.13
C       0.77      10.93      20.55
C       4.08      19.05       2.68
C       0.44      11.04      14.03
C       3.76      18.93       9.20
C       0.31       9.97      14.92
C       3.63      20.00       8.31
C       0.39      10.19      16.28
C       3.71      19.78       6.95
C       0.63      11.48      16.81
C       3.95      18.49       6.42
C       0.81      12.57      15.89
C       4.12      17.40       7.34
C       0.74      11.71      18.24
C       4.06      18.26       4.99
C       1.05      13.02      18.71
C       4.37      16.95       4.52
C       1.26      14.08      17.78
C       4.57      15.90       5.45
C       1.15      13.87      16.43
C       4.47      16.10       6.80
C       0.57      10.68      19.20
C       3.89      19.29       4.03
C       1.09      12.22      21.01
C       4.39      17.75       2.22
C       0.68      12.33      14.50
C       4.00      17.65       8.73
C       1.93      26.16      20.61
C       5.24       3.81       2.61
C       1.94      25.04      19.79
C       5.25       4.93       3.43
C       0.75      24.58      19.21
C       4.06       5.39       4.02
C       6.17      25.25      19.47
C       2.85       4.72       3.76
C       6.16      26.37      20.29
C       2.84       3.60       2.94
C       0.72      26.84      20.87
C       4.03       3.14       2.36
C       0.75      21.42      16.67
C       4.06       8.55       6.56
C       0.76      23.40      18.34
C       4.07       6.57       4.89
C       1.89      20.03      14.95
C       5.21       9.94       8.28
C       1.88      18.96      14.05
C       5.20      11.01       9.17
C       0.71      18.21      13.86
C       4.03      11.76       9.37
C       6.18      18.55      14.55
C       2.86      11.42       8.68
C       6.18      19.61      15.46
C       2.86      10.36       7.77
C       0.73      20.35      15.67
C       4.04       9.62       7.56
C       4.01      20.17       1.69
C       0.70       9.81      21.54
C       4.02       1.92       1.49
C       0.70      28.05      21.74
C       2.30      15.89      15.89
C       5.61      14.08       7.34
N       6.22      22.75      18.13
N       2.89       7.22       5.10
N       6.21      21.76      17.27
N       2.89       8.21       5.96
N       1.94      21.96      17.01
N       5.26       8.01       6.22
N       1.95      22.98      17.84
N       5.26       6.99       5.38
O       2.92      16.14      10.18
O       6.24      13.83      13.05
O       5.17      13.44      10.60
O       1.85      16.54      12.63
O       5.17      16.25      10.28
O       1.85      13.72      12.95
O       6.21      16.51      12.70
O       2.90      13.46      10.53
O       4.02      15.06      12.45
O       0.70      14.92      10.78
O       5.15       1.47       1.11
O       1.83      28.53      22.09
O       2.87      20.61       1.35
O       6.20       9.34      21.85
O       2.88       1.42       1.22
O       6.20      28.53      22.03
O       1.82       9.41      22.00
O       5.13      20.60       1.26
O       3.99       8.05      22.40
O       0.67      21.93       0.83
O       1.41      14.83      15.50
O       4.72      15.14       7.73
