74

Zn       5.71       5.52       8.56
Zn       5.49       8.43       8.65
H       3.60      10.41       7.75
H       3.25      12.92       7.66
H       4.33       0.83       6.57
H       7.30       0.64       9.70
H       4.61       9.20       4.43
H       4.66       9.33       1.92
H       6.07       8.48      15.62
H       4.33       4.58      15.06
H      10.08       4.97       8.61
H       9.50       9.21       8.12
H       1.12       8.66       8.31
H       1.70       4.43       8.89
C       5.60       7.36       6.02
C       3.03       6.77       8.62
C       5.53       6.98      11.18
C       8.17       6.87       8.42
C       4.32      11.11       8.18
C       4.12      12.48       8.13
C       5.08      13.31       8.73
C       6.20      12.73       9.35
C       6.32      11.33       9.34
C       4.96       1.30       7.32
C       5.80       0.55       8.13
C       6.62       1.20       9.07
C       6.53       2.59       9.16
C       4.93       2.69       7.50
C       5.69       7.35       4.52
C       5.09       8.42       3.84
C       5.12       8.50       2.45
C       5.75       7.50       1.71
C       6.35       6.41       2.37
C       6.33       6.34       3.78
C       5.72       7.69      14.95
C       5.22       6.51      15.48
C       4.74       5.49      14.64
C       4.81       5.68      13.26
C       5.38       6.84      12.68
C       5.82       7.84      13.57
C      10.50       5.97       8.50
C      10.18       8.37       8.23
C      11.54       8.54       8.24
C      -0.70       7.47       8.39
C       0.70       7.66       8.42
C       1.02       5.27       8.75
C      -0.34       5.09       8.71
C      11.90       6.16       8.53
C       9.65       7.05       8.37
C       1.55       6.58       8.60
N       5.39      10.55       8.77
N       4.98      14.71       8.85
N       5.83      -0.86       7.93
N       5.71       3.34       8.39
N       5.79       7.52       0.30
N       5.23       6.44      16.89
Cl       7.67      10.59      10.07
Cl       7.41      13.70      10.07
Cl       3.88       3.61       6.52
Cl       7.52       3.37      10.31
Cl       7.18       5.05       4.55
Cl       7.16       5.21       1.44
Cl       6.55       9.30      13.00
Cl       4.12       4.43      12.27
O       5.47       6.24       6.61
O       5.61       8.50       6.58
O       3.49       7.94       8.40
O       3.73       5.73       8.87
O       5.19       8.08      10.65
O       6.01       5.97      10.58
O       7.71       5.69       8.26
O       7.48       7.92       8.63
F      12.31       3.83       8.84
F      -1.11       9.80       8.10
