168

Al       6.06      -0.84      15.41
Al       1.43       7.28      14.84
Al      -1.57       7.18      14.84
Al      -0.46      -3.76      29.39
Al       1.11      -1.02      29.89
Al      -1.89      -0.93      29.88
H      -2.35       2.12      27.00
H       2.94       6.01      23.15
H      11.01      -3.38      21.55
H      -2.30       3.19      24.75
H      -2.17       5.15       6.48
H      -0.39       3.61       8.05
H      -1.79       7.35       8.24
H       0.37       8.24       6.64
H       2.15       6.70       8.21
H       1.77       4.49       6.45
H       1.34       0.00       2.49
H       0.84      -1.60      21.21
H       1.70      -0.78       4.84
H      -3.85       8.72       8.98
H      -2.18       4.62      20.45
H      -3.43       7.99      11.35
H       4.58       0.93      12.23
H       3.80       2.88       5.72
H       3.41       3.66       3.37
H       4.18       1.68       9.86
H       9.22       3.96       3.43
H       8.79       3.27       5.80
H      -2.86       6.18      21.63
H       8.01       1.89       9.98
H       7.59       1.06      12.31
H       3.30       8.20      11.35
H      -2.03       5.39      18.09
H      10.41      -0.63       4.94
H      10.83       0.08       2.57
H       3.73       9.01       9.02
H       1.87       2.13      24.36
H       1.81       1.10      26.63
H       1.91       3.30      20.24
H       4.86      -3.19      23.52
H       0.96      -3.87      22.93
H       4.73      -0.92      21.81
H       2.32      -0.12      23.11
H       6.78      -1.63      23.35
H       8.62      -0.17      21.75
H       7.03      -3.84      21.56
H       6.09       1.11      16.68
H       5.51       5.09      28.22
C       8.23      -2.09      17.10
C      -0.20       3.22      23.06
C      -0.17       3.56      21.89
C       0.01       5.44      16.48
C      -0.27       1.57      26.96
C       1.73      -1.95      21.75
C       1.80      -3.22      22.66
C       2.21      -2.49      26.32
C       3.43      -2.30      18.41
C       2.56      -1.13      22.77
C       2.63      -2.39      23.73
C      -0.13       3.95      20.53
C       3.89      -1.57      22.08
C       3.06      -2.40      21.01
C       3.97      -2.83      22.99
C       3.92      -2.23      17.06
C       3.13      -3.66      21.97
C       2.42      -2.41      25.12
C       3.25      -2.37      19.62
C       8.73      -1.21      22.07
C       7.72      -2.02      22.93
C       9.24      -2.56      26.42
C      -1.26       4.51      19.90
C       8.68      -2.19      18.46
C       9.91      -1.78      22.91
C       8.89      -2.59      23.82
C      10.06      -3.00      21.96
C       8.17      -1.35      13.30
C       8.88      -2.43      21.07
C       9.04      -3.81      22.82
C       7.85      -3.25      21.97
C       9.00      -2.61      25.23
C       8.81      -2.33      19.67
C      -1.18       4.92      18.57
C      -0.22       4.64       7.72
C      -1.21       5.50       6.87
C       0.02       6.11       3.34
C      -0.04       5.74      11.36
C       0.98       5.13       6.86
C      -0.05       5.99      12.76
C      -0.01       5.99       5.97
C       1.19       6.35       7.82
C      -0.01       5.85       8.72
C       0.20       7.21       6.97
C      -1.40       2.75      25.17
C      -1.00       6.71       7.83
C       0.00       6.07       4.56
C      -0.02       5.78      10.13
C       3.70      -1.00      11.92
C       4.09       0.28      11.50
C       3.87       0.69      10.20
C       4.06      -1.46      13.28
C       3.26      -0.18       9.27
C       2.86      -1.47       9.70
C       3.07      -1.87      11.01
C      -1.43       2.16      26.42
C       2.08       0.19       4.51
C       1.88       0.61       3.21
C       3.06       2.68       3.70
C       3.26       2.26       5.01
C       2.76       1.01       5.44
C       2.94       0.58       6.77
C       3.08       0.22       7.93
C       0.01       4.79      17.82
C       2.37       1.86       2.80
C       8.54      -0.84      11.96
C       0.92       1.58      26.21
C       9.21      -1.66      11.04
C       9.44      -1.21       9.75
C       9.00       0.07       9.35
C       8.35       0.90      10.29
C       8.11       0.44      11.58
C       9.23       2.58       5.08
C       9.46       2.96       3.77
C      10.38       0.76       3.29
C       1.12       4.17      18.43
C      10.15       0.37       4.60
C       0.95       2.15      24.95
C       9.58       1.28       5.52
C       9.37       0.88       6.87
C       9.21       0.52       8.02
C      10.04       2.05       2.86
C       1.70      -2.54      27.66
C      -0.32       0.82      28.24
C       9.82      -2.50      27.74
C       2.03       2.35       1.44
C       0.03       5.86       1.92
C       1.05       3.77      19.77
C      -0.21       2.74      24.40
C      10.42       2.48       1.49
I      -0.99      -0.65      23.71
I       2.90       3.66      17.43
O       4.69      -1.27      16.79
O      -1.47       0.53      28.72
O       9.51      -1.49      28.48
O       7.37      -1.19      16.86
O      11.14       1.69       0.82
O       1.32       1.61       0.71
O       2.44       3.53       1.11
O       1.16       5.68       1.36
O      -1.11       5.75       1.34
O      10.03       3.65       1.10
O      -0.42      -1.88      29.72
O       1.08       6.16      13.35
O       8.69      -2.94      16.26
O       1.13       5.79      15.98
O      -1.13       5.70      15.95
O      -2.66       7.68      16.26
O       4.77      -0.68      13.98
O       7.44      -0.62      14.03
O       2.35       8.32      13.61
O      -1.20       6.11      13.33
O      -2.54       8.22      13.64
O       6.13      -2.72      15.03
O      10.63      -3.42      28.03
O       0.82      -3.41      27.91
O       2.15      -1.65      28.49
O       0.79       0.46      28.76
O       6.00       0.88      15.75
O       5.79       5.36      29.11
