110

Zn       5.38       5.58       7.55
Zn       5.30       8.34       7.58
H       4.27       4.85      14.25
H       3.92       8.86       0.91
H       5.77       4.97       0.77
H       5.31       9.03      14.34
H       4.46       4.87      11.76
H       4.19       8.88       3.40
H       5.96       4.98       3.26
H       5.46       9.03      11.84
H       7.35      13.00       8.13
H       3.33       0.94       8.12
H       3.16      12.93       7.05
H       7.52       0.99       7.02
H       7.32      10.49       8.04
H       3.37       3.45       8.00
H       3.29      10.42       7.12
H       7.39       3.49       7.06
H      10.21       8.00      11.14
H      10.51       9.60      10.43
H       1.81       9.80      11.81
H       0.38       9.56      12.85
H       1.50       8.21      12.52
H       0.21       4.33       4.98
H       0.44       5.93       4.24
H       9.12       5.62       2.91
H      10.29       4.32       2.56
H       8.90       4.02       3.64
H       0.39       5.97      11.32
H       0.42       4.47      10.37
H       9.12       3.70      11.51
H      10.38       4.07      12.72
H       9.05       5.22      12.42
H      10.27       9.45       5.04
H      10.26       7.93       4.13
H       1.57       8.64       2.94
H       0.25       9.81       2.67
H       1.56      10.17       3.84
H       9.91       3.47       6.79
H       9.83       3.56       8.56
H       0.86       1.85       8.74
H      10.31       1.20       7.79
H       0.97       1.78       6.96
H       0.73      10.46       6.75
H       0.88      10.34       8.51
H       9.85      12.04       8.79
H       0.36      12.70       7.80
H       9.68      12.14       7.01
C       5.17       6.94      10.17
C       5.27       6.97       4.96
C       6.43      12.47       7.88
C       4.25       1.46       7.85
C       4.10      12.44       7.31
C       6.58       1.48       7.27
C       6.42      11.08       7.86
C       4.26       2.85       7.82
C       4.16      11.05       7.33
C       6.52       2.87       7.27
C       5.25      13.18       7.59
C       5.43       0.74       7.58
C       7.92       7.02       7.67
C       2.76       6.90       7.59
C      10.26       6.33       8.83
C       0.41       7.57       6.58
C       0.32       5.62       7.70
C      10.36       8.29       7.71
C       0.45       7.57       8.81
C      10.24       6.33       6.59
C       1.28       6.86       7.69
C       9.40       7.05       7.72
C       4.54       5.77      13.73
C       4.39       8.02       1.42
C       5.39       5.82       1.35
C       5.10       8.12      13.78
C       4.64       5.77      12.34
C       4.53       8.03       2.81
C       5.52       5.83       2.73
C       5.19       8.13      12.39
C       4.99       6.95      11.66
C       5.10       6.94       3.47
C       4.79       6.93      14.47
C       4.84       6.92       0.67
C       0.19       8.72      10.88
C       1.02       9.10      12.09
C      10.49       5.18       4.53
C       9.65       4.76       3.34
C      10.57       5.18      10.88
C       9.73       4.50      11.95
C       0.10       8.72       4.53
C       0.92       9.37       3.43
C      10.51       3.35       7.71
C       0.29       1.96       7.80
C       0.17      10.56       7.70
C      10.38      11.94       7.83
N       5.30      10.39       7.59
N       5.38       3.54       7.54
O       4.99       5.83       9.57
O       5.05       8.07       5.55
O       5.63       5.88       5.52
O       5.49       8.04       9.62
O       7.38       5.88       7.86
O       3.29       8.03       7.81
O       3.36       5.82       7.28
O       7.32       8.11       7.41
O       1.08       8.13       9.91
O       9.59       5.77       5.51
O       9.65       5.76       9.93
O       1.03       8.15       5.48
O       0.78       4.30       7.70
O       9.91       9.60       7.72
