224

Tb       8.52      17.85      16.71
Tb       8.52      14.29      15.42
Tb       2.37       4.71       7.13
Tb       2.37       6.00       3.58
Tb       7.90       3.58       4.71
Tb       7.90       7.13       6.00
Tb      14.05      16.72      14.29
Tb      14.05      15.42      17.84
H       8.76      15.40      18.04
H       8.76      16.74      14.10
H       2.61       3.39       4.68
H       2.61       7.33       6.03
H       7.65       6.03       3.38
H       7.66       4.68       7.33
H      13.81      18.04      16.74
H      13.81      14.10      15.39
H      13.38      20.42      16.45
H      13.38      11.73      15.68
H       7.23       4.98       9.70
H       7.23       5.74       1.01
H       3.03       1.01       4.97
H       3.03       9.70       5.74
H       9.19      16.45      11.72
H       9.19      15.69      20.41
H       9.06       0.52      18.44
H       4.95      10.20      13.69
H       7.01       2.98      11.23
H      11.11       7.74      20.91
H       7.36      20.91       2.98
H      11.47      11.23       7.73
H       9.41      18.44      10.19
H       5.31      13.69       0.52
H       9.09      20.53      18.83
H       9.09      11.60      13.31
H       2.94       2.60       9.82
H       2.94       8.11       0.89
H       7.33       0.89       2.60
H       7.32       9.82       8.11
H      13.48      18.83      11.60
H      13.48      13.31      20.53
H       7.77       2.53      19.28
H      11.87       8.18      12.85
H       5.72       2.14      13.24
H       9.82       8.58      18.90
H       8.65      18.90       2.14
H       4.55      13.24       8.57
H      10.70      19.29       8.19
H       6.59      12.85       2.53
H       7.12       3.94      21.24
H      11.22       6.78      10.89
H       5.06       0.18      14.64
H       9.17      10.54      17.49
H       9.30      17.49       0.18
H       5.20      14.65      10.53
H      11.35      21.24       6.78
H       7.25      10.89       3.93
H       0.96       0.59       1.55
H       9.17      10.12       9.16
H       7.12      19.87      11.30
H       7.12      12.27      20.84
H      15.45      20.84      19.87
H       7.24      11.30      12.26
H       9.30       1.56      10.13
H       9.30       9.16       0.59
H       9.80      20.60      21.04
H       9.81      11.54      11.10
H       3.66       0.39       9.88
H       3.65      10.33       0.83
H       6.62       0.83       0.39
H       6.61       9.89      10.32
H      12.76      21.04      11.54
H      12.77      11.10      20.59
C      11.48      18.63      15.56
C      11.48      13.51      16.57
C       5.32       5.86       7.91
C       5.32       4.85       2.80
C       4.94       2.80       5.86
C       4.94       7.92       4.85
C      11.10      15.56      13.51
C      11.10      16.58      18.62
C      11.37      19.69      16.64
C      11.37      12.45      15.50
C       5.21       4.79       8.97
C       5.21       5.92       1.74
C       5.05       1.74       4.79
C       5.05       8.97       5.92
C      11.20      16.64      12.45
C      11.20      15.50      19.68
C      12.45      20.49      17.01
C      12.45      11.65      15.13
C       6.30       4.42       9.78
C       6.29       6.29       0.93
C       3.97       0.93       4.42
C       3.97       9.78       6.29
C      10.12      17.01      11.64
C      10.12      15.14      20.49
C      12.31      21.34      18.10
C      12.32      10.80      14.03
C       6.16       3.32      10.62
C       6.16       7.39       0.09
C       4.10       0.09       3.32
C       4.10      10.63       7.39
C      10.25      18.11      10.80
C      10.26      14.04      21.33
C      11.10      21.36      18.81
C      11.11      10.77      13.32
C       4.95       2.61      10.65
C       4.95       8.10       0.06
C       5.31       0.06       2.61
C       5.31      10.65       8.10
C      11.47      18.82      10.77
C      11.47      13.33      21.36
C      10.06      20.55      18.33
C      10.07      11.59      13.80
C       3.91       3.09       9.83
C       3.91       7.62       0.88
C       6.35       0.88       3.09
C       6.35       9.84       7.62
C      12.50      18.34      11.59
C      12.51      13.81      20.54
C       6.76       0.76      20.01
C      10.86       9.95      12.12
C       4.71       1.41      11.47
C       8.81       9.31      20.67
C       9.66      20.66       1.41
C       5.56      11.47       9.30
C      11.71      20.01       9.95
C       7.60      12.12       0.76
C       7.19       2.10      20.10
C      11.29       8.62      12.03
C       5.14       1.32      12.80
C       9.24       9.40      19.33
C       9.23      19.33       1.32
C       5.13      12.81       9.39
C      11.28      20.10       8.62
C       7.18      12.03       2.09
C       6.82       2.89      21.19
C      10.92       7.83      10.95
C       4.77       0.24      13.60
C       8.87      10.48      18.54
C       9.60      18.54       0.23
C       5.50      13.60      10.47
C      11.65      21.19       7.83
C       7.55      10.95       2.89
C       1.92       2.36       0.79
C      10.13       8.36       9.92
C       8.07      20.63      13.06
C       8.07      11.51      19.07
C      14.50      19.07      20.63
C       6.29      13.07      11.50
C       8.34       0.80       8.36
C       8.34       9.92       2.36
C       1.55       1.01       0.74
C       9.76       9.71       9.98
C       7.70      20.69      11.71
C       7.70      11.45      20.42
C      14.87      20.42      20.69
C       6.66      11.72      11.45
C       8.71       0.74       9.71
C       8.71       9.98       1.00
C       6.01       0.22      21.07
C      10.11      10.49      11.06
C       3.96       0.35      10.93
C       8.06      10.37      21.21
C      10.41      21.21       0.35
C       6.31      10.93      10.36
C      12.46      21.08      10.50
C       8.36      11.06       0.22
C       1.44       3.21       1.93
C       9.65       7.50       8.78
C       7.59      19.50      13.92
C       7.59      12.64      18.21
C      14.98      18.21      19.50
C       6.77      13.93      12.64
C       8.82       1.93       7.50
C       8.83       8.79       3.21
N      10.19      19.74      17.28
N      10.19      12.40      14.85
N       4.03       4.14       9.02
N       4.03       6.57       1.69
N       6.23       1.69       4.14
N       6.23       9.02       6.57
N      12.38      17.29      12.40
N      12.38      14.86      19.73
O      10.45      17.91      15.36
O      10.45      14.23      16.78
O       4.29       6.07       7.19
O       4.29       4.64       3.52
O       5.97       3.52       6.07
O       5.97       7.20       4.64
O      12.12      15.36      14.23
O      12.12      16.79      17.91
O      12.59      18.51      14.98
O      12.59      13.63      17.16
O       6.44       6.45       7.79
O       6.44       4.27       2.92
O       3.83       2.92       6.44
O       3.83       7.80       4.27
O       9.98      14.98      13.63
O       9.98      17.16      18.51
O       1.74       4.45       1.91
O       9.95       6.26       8.80
O       7.89      19.51      15.16
O       7.89      12.63      16.97
O      14.68      16.98      19.51
O       6.47      15.17      12.62
O       8.52       1.91       6.26
O       8.53       8.80       4.45
O       8.96       2.64       2.83
O       8.96       8.08       7.88
O       6.90      18.59      13.35
O       6.90      13.55      18.79
O       7.46      18.79      18.59
O       7.46      13.35      13.54
O       9.52       2.83       8.08
O       9.52       7.88       2.64
O       8.14      15.62      17.33
O       8.14      16.52      14.81
O       1.99       4.10       4.91
O      10.20       6.62       5.80
O       8.28       5.80       4.10
O       8.28       4.91       6.61
O      14.43      17.33      16.51
O       6.22      14.81      15.62
