104

Zn       6.33       5.61      11.90
Zn       3.51       5.62      11.87
H       5.28       2.10       1.31
H       2.98       4.48       7.76
H       6.56       6.46       4.97
H       6.90       1.26      12.71
H       3.13       1.44      10.64
H       6.86       1.37      10.95
H       4.64       1.45       9.72
H       6.86       9.89      10.81
H       4.62       9.96       9.60
H       6.92       9.78      12.56
H       3.13       9.94      10.55
H       4.69       1.25      14.03
H       3.16       1.30      13.14
H       4.75       9.76      13.91
H       3.20       9.80      13.06
H       5.36       2.37      22.51
H       1.36       3.50      11.75
H       8.67       3.55      11.47
H       1.36       6.56      13.80
H       8.61       6.28      13.91
H       1.39       6.67      10.16
H       8.63       6.92      10.35
H       1.24       4.92       9.97
H       8.48       5.22       9.86
H       1.24       7.61      12.37
H       8.46       7.54      12.67
H       4.07       8.98      22.47
H       3.94       8.69       1.26
H       2.64       5.74      18.59
H       2.72       5.77      16.07
H       7.00       5.62      16.21
H       6.93       5.60      18.72
H       2.80       4.39       5.26
H       7.01       6.72       8.56
H       7.57       7.26       6.98
H       2.34       3.85      13.84
H       0.83       3.25      14.20
H       7.35       3.46      13.32
H       8.45       4.20      14.31
C       4.90       3.01      11.94
C       5.09       3.01       0.73
C       5.17       3.29      23.07
C       4.94       4.46      22.35
C       4.70       5.68      23.04
C       4.47       6.89      22.34
C       4.23       8.06      23.04
C       4.13       7.77       0.70
C       4.96       4.43      20.87
C       4.50       6.91      20.86
C       3.59       5.71      18.06
C       4.92       5.71      14.50
C       3.63       5.74      16.66
C       4.87       5.70      16.00
C       6.05       5.65      16.74
C       6.02       5.63      18.13
C       4.78       5.67      18.78
C       3.65       4.86       5.75
C       3.76       4.90       7.13
C       4.86       5.48       7.78
C       5.91       6.06       6.99
C       5.78       6.02       5.59
C       4.88       8.19      11.74
C       4.67       5.43       4.99
C       6.35       0.93      11.82
C       4.15       1.03      10.61
C       6.37      10.24      11.73
C       4.16      10.32      10.54
C       4.19       0.90      13.11
C       4.91       1.48      11.88
C       4.92       9.72      11.74
C       4.23      10.20      13.04
C       0.92       4.24      12.45
C       8.94       4.18      12.32
C       0.90       6.67      12.82
C       8.94       6.58      12.91
C       0.90       5.77      10.57
C       8.95       5.90      10.59
C       4.89       5.50       9.27
C       4.32       6.63       2.90
C       4.88       4.18       2.92
C       4.85       4.19       1.43
C       4.60       5.39       0.73
C       4.35       6.60       1.41
N       4.61       5.41       3.55
N       4.74       5.67      20.22
N       1.41       5.57      11.95
N       8.43       5.57      11.94
N       7.02       6.62       7.55
N       1.34       4.05      13.82
N       8.34       3.61      13.48
O       5.99       3.61      11.65
O       3.82       3.59      12.26
O       6.04       5.43      13.96
O       3.84       5.99      13.88
O       5.96       7.60      12.06
O       3.78       7.62      11.47
O       5.98       5.86       9.85
O       3.83       5.16       9.89
O       4.07       7.65       3.54
O       5.13       3.17       3.57
O       5.16       3.41      20.23
O       4.33       7.93      20.20
