120

Al       0.97       7.63      11.85
Al       4.31       7.60      11.85
Al       4.51      -0.00       0.00
Al       1.24      -7.55      23.69
H       4.11      -4.15      21.53
H       4.06      -2.18      20.01
H       1.59      -2.63      19.28
H       1.65      -4.56      20.87
H       0.97      -0.09      19.66
H       0.97       1.89      18.19
H       4.61       0.05      15.77
H       3.95       2.19      15.62
H       3.90       4.16      14.10
H       1.45       4.68      14.63
H       1.51       2.71      16.15
H       0.79      19.32       2.07
H       0.73      17.35       3.58
H       4.89      17.94       4.50
H       4.96      19.86       2.91
H       4.44      15.44       4.14
H       4.50      13.48       5.64
H       1.15      15.09       7.82
H       0.63      12.84       7.76
H       0.53      10.88       9.29
H       4.84      10.80       9.43
H       2.13      18.24       8.11
H       2.38      18.99       6.52
H       0.93      19.38       7.45
H       0.35      17.78       5.65
H       0.12      17.01       7.21
H       5.83      -3.02      15.55
H       6.02      -3.76      17.15
H       4.67      -4.25      16.11
H       3.85      -2.70      17.88
H       3.67      -1.95      16.30
H       2.62       5.91      11.41
H       5.97       9.25      12.48
H       2.84       1.67       0.54
H       6.31      13.55      23.24
C       2.65       8.90      13.91
C       2.64       9.53      10.37
C       5.98       6.34       9.79
C       6.00       5.70      13.33
C       5.02      -3.81      21.03
C       4.99      -2.72      20.17
C       6.15      -2.29      19.51
C       0.68      -2.96      19.78
C       0.72      -4.04      20.66
C       6.23      -4.48      21.28
C       0.31      -0.06      18.80
C       0.31       1.06      17.97
C       6.11       1.13      16.88
C       5.26       0.04      16.65
C       5.25      -1.10      17.46
C       6.12      -1.14      18.58
C       4.87       2.73      15.40
C       4.84       3.83      14.55
C       6.02       4.54      14.27
C       0.54       4.13      14.85
C       0.57       3.03      15.71
C       6.08       2.31      15.99
C       6.18       2.06       3.27
C       6.14       2.73       4.29
C       6.10       3.47       5.41
C       6.06       4.16       6.43
C       6.03       4.90       7.55
C       6.00       5.58       8.57
C       2.67       9.67      15.13
C       2.72      10.34      16.15
C       2.78      11.08      17.27
C       2.85      11.77      18.29
C       2.91      12.51      19.41
C       2.97      13.19      20.43
C       1.68      19.01       2.61
C       1.65      17.92       3.47
C       2.80      17.53       4.18
C       3.99      18.24       3.96
C       4.04      19.31       3.08
C       2.87      19.72       2.41
C       3.72      15.36       4.96
C       3.76      14.26       5.80
C       2.81      14.13       6.83
C       1.87      15.15       6.99
C       1.83      16.28       6.17
C       2.77      16.38       5.11
C       1.55      12.40       8.14
C       1.49      11.30       8.98
C       2.67      10.70       9.45
C       3.91      11.24       9.06
C       3.93      12.33       8.22
C       2.78      12.95       7.72
C       2.90      20.88       1.48
C       2.97      13.96      21.64
C       6.25      -5.64      22.21
C       6.18       1.29       2.05
C       0.88      17.40       6.53
C       1.62      18.57       7.19
C       4.41      -2.29      17.04
C       5.28      -3.40      16.42
O       3.77       9.08      10.76
O       1.51       8.64      13.42
O       0.44       6.18      12.98
O       1.50       9.09      10.72
O       0.44       6.63      10.28
O       3.79       8.58      13.44
O       2.64       6.83      11.72
O       4.84       6.64      10.26
O       4.86       6.12      12.93
O       5.98       8.41      12.00
O       1.83      14.27      22.11
O       4.04      21.34       1.14
O       5.04       0.99       1.58
O       4.11      14.24      22.14
O       5.12      -6.09      22.60
O       1.77      21.32       1.07
O       2.84       0.79       0.13
O       0.71      -6.09      22.57
O       0.64       1.00       1.56
O       6.31      14.46      23.57
F       5.15      12.86       7.90
