220

Zn       7.34       5.60      10.26
Zn       5.07       7.93      10.39
Zn      -1.93      12.67      21.63
Zn      13.40      -0.11      21.77
Zn       5.12       8.01      13.70
Zn       7.31       5.40      13.59
Zn      13.36       1.01       1.56
Zn      -1.90      13.71       1.43
H       8.69       6.37       7.23
H       2.50       6.16       9.85
H      -0.81      13.62      18.68
H       7.97      12.24      21.87
H      -0.13       6.06      13.96
H      12.15       7.25      15.13
H       8.21       0.61       2.37
H       5.60       2.03       3.14
H      -0.23       7.49      15.02
H      12.24       5.81      14.08
H       8.10       2.25       3.12
H       5.75       0.40       2.41
H       9.39       6.55      19.19
H       1.88       4.86      17.06
H       2.51       0.38       7.05
H       8.69      12.34       5.25
H       3.52       1.53       8.97
H       7.78      10.87       7.00
H      10.26       7.96      21.01
H       0.74       3.23      18.49
H       1.91       5.28       7.59
H       8.46       7.44       4.48
H       6.87      10.59      20.60
H       2.19       0.01      16.03
H       6.00       9.17      18.81
H       3.36       1.64      14.60
H       0.87       4.12       5.68
H       9.37       8.92       2.72
H      10.62       0.81      13.80
H       7.84      13.05      13.87
H      -0.08       8.46       1.95
H       0.15       6.03       1.98
H       6.49       9.23      16.59
H       5.05       2.95      13.94
H      13.98       2.59       4.66
H      11.63      10.88       2.21
H       6.89      10.47       9.81
H       9.20       2.89       9.65
H       0.02       2.73      21.15
H      -0.34       9.72      21.07
H       6.72      10.85      14.12
H       8.83       2.54      13.94
H       0.17       3.71       2.01
H      -0.57      10.72       1.91
H       9.61       7.76       9.85
H       1.86       8.84       9.65
H       3.51       0.31      21.06
H      10.23       0.88      21.10
H      11.71       9.31      10.15
H      -0.72       9.60      10.05
H       5.50       1.99      21.27
H       7.93       2.24      21.26
H       6.70      12.77       9.72
H       9.48       0.51       9.66
H       0.64       5.05      21.17
H       0.41       7.48      21.15
H       9.73       7.39      14.16
H       1.78       8.33      13.94
H       3.39       1.40       1.92
H      10.35       2.34       1.91
H       8.29       3.06      16.53
H       3.14       8.71      15.94
H       0.60      13.09       3.18
H      10.26       0.59       3.35
H       5.72       9.48       7.63
H       5.52       3.06       9.61
H      13.71       1.45      18.98
H      11.57       9.83      21.65
C       7.87       7.02       7.51
C       3.39       5.54       9.90
C       1.42      -0.58      18.92
C       8.97      11.83      21.88
C       7.38       7.34      17.42
C       3.58       4.32      14.97
C       1.08       1.53       5.01
C       9.64      11.69       2.87
C       7.02      11.26      11.92
C       9.36       2.17      11.78
C       0.22       3.38      23.32
C      -0.26       9.11      23.25
C      10.27       7.82      12.01
C       1.19       8.59      11.80
C       3.98       0.71      23.24
C       9.68       1.32      23.24
C      12.55       7.71      12.98
C      -0.92       7.86      12.92
C       6.14       2.05       0.97
C       7.53       2.18       0.96
C      11.68       8.19      12.00
C      -0.27       8.52      11.86
C       5.34       1.25      23.30
C       8.24       1.54      23.29
C      12.32       8.89      10.95
C      -1.15       9.05      10.89
C       6.05       1.75      22.18
C       7.44       1.89      22.18
C      -0.68       7.00      14.14
C      12.61       6.84      14.22
C       7.68       1.58       2.35
C       6.11       1.44       2.36
C       8.85       7.44      19.49
C       1.96       3.80      16.83
C       2.36       1.45       7.17
C       8.62      11.27       5.06
C       2.94       2.11       8.25
C       8.11      10.44       6.05
C       9.33       8.25      20.52
C       1.31       2.88      17.63
C       2.81       3.50       8.42
C       8.04       9.04       5.87
C       8.70       9.46      20.87
C       1.41       1.50      17.39
C       6.80       8.19      16.47
C       4.66       3.94      14.15
C      -0.12       1.87       4.36
C      10.89      11.67       2.23
C       2.01       4.20       7.50
C       8.52       8.52       4.66
C       7.44       9.71      20.30
C       2.15       1.08      16.27
C       6.95       8.91      19.28
C       2.80       2.00      15.47
C       1.43       3.54       6.42
C       9.04       9.35       3.66
C       7.70       7.82      18.77
C       2.76       3.38      15.75
C       1.62       2.16       6.21
C       9.08      10.75       3.84
C      10.45       0.21      12.90
C       7.50      13.51      12.94
C       0.09       7.93       1.01
C       0.22       6.55       1.02
C       7.22      12.71      11.82
C       9.94       0.83      11.75
C       0.35       4.84      23.31
C       0.08       7.69      23.28
C       6.89      13.36      10.61
C       9.84       0.06      10.58
C       0.47       5.57      22.12
C       0.34       6.96      22.10
C       6.76      10.35      10.88
C       8.99       3.00      10.71
C      -0.00       2.52      22.22
C      -0.46       9.94      22.13
C       9.50       7.38      13.10
C       2.05       8.45      12.90
C       3.24       1.23       0.86
C      10.55       2.13       0.87
C       6.68      10.54      13.08
C       8.81       2.83      12.90
C       0.07       3.49       0.95
C      -0.57      10.93       0.85
C       9.43       7.58      10.90
C       2.07       8.72      10.71
C       3.29       0.21      22.12
C      10.48       0.94      22.15
C       7.62       6.15      16.68
C       3.62       5.74      14.90
C       1.60       0.51       4.17
C       9.15      12.99       2.58
C       6.37       8.61       7.73
C       4.92       3.95       9.80
C      14.50       0.71      19.09
C      10.81      10.60      21.77
C       7.46       8.23       6.94
C       3.61       4.25       9.39
C       0.83       0.56      18.36
C       9.41      10.52      21.58
C       8.08       4.84      17.11
C       2.96       6.82      15.63
C      -0.32      14.44       4.20
C       7.88      13.59       2.97
N       7.08       6.71       8.57
N       4.50       5.98      10.53
N      -2.52      13.61      19.93
N      10.03      12.61      22.17
N       6.69       7.59      15.27
N       5.27       5.03      13.62
N      14.57       1.12       3.25
N      11.13      12.86       1.64
N       6.26       9.21      11.39
N       8.29       4.06      11.15
N      -0.30       1.28      22.66
N      -0.88      11.16      22.51
N       8.31       6.89      12.67
N       3.34       8.49      12.51
N       2.20       0.49       0.42
N      11.75       1.67       0.48
N       6.22       9.33      12.74
N       8.18       3.95      12.51
N      -0.25       2.25       0.54
N      -0.95      12.14       0.40
N       8.28       7.01      11.31
N       3.35       8.66      11.15
N       2.22      -0.51      22.54
N      11.70       0.57      22.59
N       7.20       6.34      15.39
N       4.62       6.11      14.05
N       0.76       0.29       3.13
N      10.07      13.67       1.85
N       6.15       7.71       8.70
N       5.45       5.00      10.46
N      14.40      -0.26      20.02
N      11.16      11.85      22.10
O       8.46       4.53      18.23
O       8.00       3.90      16.10
O       1.96       6.80      16.33
O       3.66       8.03      15.47
O       3.82      -0.09       4.94
O      -0.30      13.46       3.19
O       6.81      13.01       3.12
O      11.18       0.27       3.19
