108

Cu      -0.05       0.64      10.84
Cu       3.53      -2.67       7.33
Cu       7.11       2.03       6.22
Cu       7.11       4.37       4.88
Cu      -0.06       9.07       5.97
Cu       3.53       7.67       1.35
Cu      -2.91       1.46      12.19
Cu       0.67      -4.25       7.36
Cu       4.26       2.79       4.84
H       5.40       2.06      10.41
H       5.12       1.92       8.64
H       5.71       3.44       9.30
H       0.37       1.22       7.78
H      -0.71       1.95       6.55
H      -0.72       0.19       6.82
H      -1.77      -2.99       8.78
H      -2.05      -1.39       9.54
H      -1.46      -2.72      10.52
H       3.96      -0.31       9.36
H       2.88       0.39      10.61
H       2.87       1.04       8.95
H       1.81       0.93       5.21
H       1.53      -0.52       6.22
H       2.13      -0.71       4.58
H       7.54      -0.91       7.25
H       6.46      -2.35       7.23
H       6.45      -1.23       8.62
H       1.81       4.03       3.42
H       1.53       5.63       2.67
H       2.12       4.31       1.67
H       7.54       6.72       2.84
H       6.47       7.42       1.58
H       6.45       8.07       3.24
H       5.40       7.99       7.00
H       5.12       6.53       5.99
H       5.70       6.34       7.63
H       0.37       6.13       4.96
H      -0.71       4.69       4.99
H      -0.73       5.80       3.60
H      -1.77       9.11       1.78
H      -2.05       8.96       3.54
H      -1.46      10.48       2.89
H       3.95       8.26       4.41
H       2.88       9.01       5.64
H       2.86       7.25       5.37
H       3.03       9.78       0.00
H       8.92       5.75       0.00
H      -0.56       9.19       8.47
H       8.92      -2.87       4.99
H       6.61       2.15       3.73
H       1.74       4.15       7.20
C      -3.59       1.87       9.24
C       5.77       2.34       9.42
C      -1.68       1.38       8.33
C      -0.62       1.17       7.32
C      -0.01      -1.88       9.20
C      -1.40      -2.28       9.52
C       1.90      -0.86       9.22
C       2.97       0.12       9.55
C       3.58       0.02       5.96
C       2.18      -0.06       5.46
C       5.49      -0.52       6.84
C       6.55      -1.29       7.52
C       3.58       5.14       3.00
C       2.18       4.75       2.68
C       5.49       6.17       2.97
C       6.55       7.15       2.64
C      -3.59       7.06       6.25
C       5.77       6.99       6.75
C      -1.69       6.53       5.37
C      -0.62       5.75       4.69
C      -0.01       8.92       2.95
C      -1.40       9.39       2.77
C       1.90       8.42       3.86
C       2.96       8.22       4.87
C      -0.91       6.39       0.00
C      -0.92      -3.19       5.53
C       2.66       3.84       6.66
N      -2.75       1.56      10.22
N      -1.54       1.24       9.65
N      -2.95       1.76       8.04
N       0.83      -2.59       8.43
N       2.04      -1.93       8.44
N       0.63      -0.79       9.70
N       4.42       1.03       5.74
N       5.63       0.70       6.30
N       4.22      -0.96       6.66
N       4.42       4.44       3.76
N       5.63       5.10       3.75
N       4.22       6.23       2.50
N      -2.75       8.08       6.47
N      -1.54       7.74       5.91
N      -2.96       6.08       5.56
N       0.84       8.60       1.96
N       2.04       8.28       2.54
N       0.63       8.80       4.15
O      -0.93       1.84      12.19
O       1.20       0.37      12.19
O      -4.74       0.62      12.19
O       0.22       5.86       0.00
O       2.64      -4.43       7.69
O       1.20      10.37       6.42
O      -1.16      -3.82       6.64
O       0.21      -2.93       5.08
O       6.23       2.59       4.51
O      -2.39       3.33       5.78
O       2.42       3.20       5.56
O       3.79       4.11       7.12
