280

Zn      10.03       5.97       9.54
Zn       5.71       3.11      19.09
Zn       5.29      12.18       9.56
Zn       9.62      15.04       0.01
Zn      12.81       6.49       9.56
Zn       2.93       2.58       0.01
Zn       2.51      11.66       9.54
Zn      12.39      15.57      19.09
H       8.80       8.95      12.40
H       6.94       0.13       2.85
H       6.52       9.20       6.70
H       8.38      18.02      16.25
H       8.45      10.65      14.20
H       6.45      16.57       4.65
H       6.87       7.50       4.90
H       8.87       1.58      14.45
H       9.43      12.19      15.92
H       5.48      15.03       6.37
H       5.89       5.96       3.18
H       9.84       3.11      12.73
H      13.63      12.09      16.75
H       1.27      15.14       7.20
H       1.69       6.06       2.35
H      14.05       3.01      11.90
H      13.96      10.30      15.03
H       0.95      16.92       5.48
H       1.36       7.85       4.07
H      14.37       1.23      13.62
H      13.01       8.87      13.22
H       2.73       0.21       3.67
H       2.31       9.28       5.88
H      12.59      17.94      15.43
H       8.96       8.42       6.23
H       6.78       0.65      15.78
H       6.36       9.72      12.87
H       8.54      17.50       3.32
H       8.62      10.03       4.34
H       6.29      17.19      13.89
H       6.70       8.12      14.76
H       9.03       0.96       5.21
H       9.52      11.85       2.89
H       5.39      15.37      12.44
H       5.80       6.29      16.21
H       9.93       2.78       6.66
H      13.47      13.37       3.55
H       1.44      13.85      13.10
H       1.85       4.78      15.55
H      13.89       4.30       6.00
H      13.80      11.78       5.44
H       1.11      15.44      14.99
H       1.52       6.37      13.66
H      14.22       2.71       4.11
H      12.91       9.95       6.90
H       2.00      17.28      16.45
H       2.41       8.20      12.20
H      13.32       0.87       2.65
H      15.05       5.46      11.11
H       0.69       3.61       1.56
H       0.27      12.69       7.99
H      14.63      14.53      17.54
H       1.40       5.59      11.14
H      14.34       3.48       1.59
H      13.93      12.56       7.96
H       0.98      14.67      17.51
H       3.33       7.91       8.84
H      12.40       1.16      18.39
H      11.99      10.24      10.26
H       2.92      16.99       0.71
H       3.30       5.15      10.22
H      12.44       3.92       0.67
H      12.02      13.00       8.88
H       2.88      14.23      18.43
H       5.34       3.94      10.22
H      10.39       5.14       0.67
H       9.98      14.21       8.88
H       4.93      13.01      18.43
H       7.85       3.91      10.08
H       7.89       5.16       0.53
H       7.47      14.23       9.02
H       7.43      12.99      18.57
H       7.97       7.92       9.08
H       7.77       1.15      18.63
H       7.35      10.23      10.02
H       7.55      17.00       0.47
H       5.50       8.15       9.20
H      10.24       0.92      18.75
H       9.82      10.00       9.90
H       5.08      17.22       0.35
H       1.12       8.41       7.87
H      14.61       0.66      17.42
H      14.20       9.74      11.23
H       0.71      17.49       1.68
H      14.77       8.15       7.99
H       0.97       0.92      17.54
H       0.55      10.00      11.11
H      14.35      17.22       1.56
C      11.14       7.90      11.55
C       4.59       1.17       2.00
C       4.18      10.25       7.55
C      10.73      16.98      17.10
C      10.94       8.84      12.69
C       4.80       0.23       3.14
C       4.38       9.31       6.41
C      10.52      17.92      15.96
C       9.64       9.33      12.99
C       5.27      17.89       3.44
C       5.68       8.82       6.11
C      10.05       0.25      15.66
C       9.45      10.26      13.98
C       5.45      16.96       4.43
C       5.87       7.89       5.12
C       9.87       1.19      14.67
C      10.56      10.76      14.73
C       4.35      16.47       5.18
C       4.77       7.39       4.37
C      10.97       1.68      13.92
C      10.41      11.76      15.71
C       4.50      15.46       6.16
C       4.91       6.39       3.39
C      10.82       2.69      12.94
C      11.50      12.25      16.41
C       3.40      14.98       6.86
C       3.82       5.90       2.69
C      11.92       3.17      12.24
C      12.79      11.70      16.17
C       2.11      15.52       6.62
C       2.53       6.45       2.93
C      13.21       2.63      12.48
C      12.97      10.72      15.22
C       1.94      16.50       5.67
C       2.35       7.43       3.88
C      13.38       1.64      13.43
C      11.87      10.23      14.47
C       3.04      16.99       4.92
C       3.45       7.92       4.63
C      12.28       1.16      14.18
C      12.02       9.27      13.44
C       2.88      17.95       3.89
C       3.30       8.88       5.66
C      12.44       0.20      15.21
C      11.32      13.36      17.40
C       3.59      13.86       7.85
C       4.00       4.79       1.70
C      11.74       4.29      11.25
C      11.14       8.13       7.78
C       4.60       0.94      17.33
C       4.19      10.02      11.32
C      10.72      17.20       1.77
C      10.96       9.11       6.67
C       3.95      18.11      16.22
C       4.37       9.04      12.43
C      11.37       0.04       2.88
C       9.73       9.13       5.94
C       5.17      18.09      15.49
C       5.59       9.02      13.16
C      10.15       0.06       3.61
C       9.56      10.01       4.90
C       5.35      17.21      14.45
C       5.76       8.14      14.20
C       9.97       0.94       4.65
C      10.59      10.92       4.53
C       4.32      16.30      14.08
C       4.73       7.23      14.57
C      11.00       1.84       5.02
C      10.44      11.83       3.46
C       4.46      15.39      13.01
C       4.88       6.32      15.64
C      10.86       2.75       6.09
C      11.46      12.69       3.12
C       3.44      14.53      12.67
C       3.86       5.45      15.98
C      11.88       3.62       6.43
C      12.68      12.68       3.84
C       2.22      14.54      13.39
C       2.64       5.47      15.26
C      13.10       3.61       5.71
C      12.86      11.80       4.89
C       2.05      15.42      14.44
C       2.46       6.34      14.21
C      13.27       2.73       4.66
C      11.83      10.90       5.27
C       3.08      16.32      14.82
C       3.49       7.25      13.83
C      12.24       1.83       4.28
C      11.98       9.98       6.33
C       2.93      17.24      15.88
C       3.34       8.17      12.77
C      12.39       0.91       3.22
C      11.28      13.64       1.97
C       3.63      13.58      11.52
C       4.04       4.50      17.13
C      11.69       4.57       7.58
C      15.59       6.09      10.41
C       0.14       2.98       0.86
C      -0.27      12.06       8.69
C      15.18      15.16      18.24
C       0.83       6.16      10.40
C      14.91       2.91       0.85
C      14.49      11.99       8.70
C       0.41      15.23      18.25
C       1.48       6.97       9.45
C      14.26       2.10      19.00
C      13.84      11.17       9.65
C       1.06      16.05       0.10
C       2.93       7.04       9.35
C      12.81       2.04      18.90
C      12.39      11.11       9.75
C       2.51      16.11       0.20
C       3.74       6.05       9.79
C      11.99       3.02       0.24
C      11.58      12.10       9.31
C       3.33      15.13      18.86
C       5.19       6.04       9.71
C      10.54       3.03       0.16
C      10.13      12.10       9.39
C       4.78      15.12      18.94
C       5.89       4.85       9.97
C       9.85       4.23       0.42
C       9.43      13.30       9.13
C       5.47      13.92      18.68
C       7.28       4.82       9.89
C       8.46       4.25       0.34
C       8.05      13.33       9.21
C       6.86      13.90      18.76
C       7.34       7.07       9.33
C       8.40       2.00      18.88
C       7.98      11.08       9.77
C       6.92      16.15       0.22
C       5.96       7.18       9.39
C       9.78       1.89      18.94
C       9.36      10.97       9.71
C       5.54      16.26       0.16
C       0.67       7.73       8.59
C      15.07       1.34      18.14
C      14.65      10.42      10.51
C       0.25      16.81       0.96
C      15.44       7.60       8.65
C       0.30       1.47      18.20
C      -0.12      10.55      10.45
C      15.02      16.67       0.90
N      14.83       6.79       9.54
N       0.90       2.29      19.09
N       0.49      11.36       9.56
N      14.42      15.86       0.01
N       7.99       5.92       9.57
N       7.75       3.16       0.02
N       7.33      12.23       9.53
N       7.57      14.99      19.08
O      10.10       7.58      10.88
O       5.63       1.50       1.33
O       5.22      10.57       8.22
O       9.69      16.65      17.77
O      12.33       7.53      11.29
O       3.40       1.55       1.74
O       2.99      10.62       7.81
O      11.92      16.60      17.36
O      12.37      13.82      17.96
O       2.54      13.40       8.41
O       2.95       4.33       1.14
O      12.78       4.74      10.69
O      10.13      13.78      17.58
O       4.78      13.45       8.03
O       5.19       4.37       1.52
O      10.54       4.70      11.07
O      12.25       8.14       8.41
O       3.49       0.94      17.96
O       3.08      10.01      10.69
O      11.83      17.21       1.14
O      10.15       7.36       8.02
O       5.58       1.72      17.57
O       5.17      10.79      11.08
O       9.74      16.43       1.53
O      10.17      13.60       1.35
O       4.74      13.63      10.90
O       5.15       4.55      17.75
O      10.58       4.52       8.20
O      12.25      14.43       1.71
O       2.66      12.79      11.26
O       3.07       3.72      17.39
O      12.66       5.35       7.84
