138

Cu       5.77       2.88       9.60
Cu      -0.31      10.16      13.96
Cu       6.73      11.68       6.11
Cu      12.82       4.40       1.75
Cu       6.25      14.56       7.86
Cu       0.00       7.28       0.00
H       1.23      12.66      14.73
H       2.86      14.19      13.59
H       3.03      11.36      10.35
H       1.37       9.95      11.59
H      11.88      12.79      13.09
H      10.27      13.60      11.35
H      10.03       9.54       9.90
H      11.60       8.88      11.75
H       4.23       5.38       8.84
H       2.60       6.91       9.97
H       2.43       4.08      13.22
H       4.09       2.67      11.98
H       6.89       5.51      10.47
H       8.50       6.32      12.22
H       8.73       2.26      13.66
H       7.16       1.60      11.81
H      11.28       1.90       0.98
H       9.64       0.37       2.12
H       9.48       3.20       5.37
H      11.14       4.61       4.12
H       0.63       1.77       2.62
H       2.24       0.96       4.36
H       2.48       5.02       5.81
H       0.90       5.68       3.96
H       8.28       9.18       6.87
H       9.91       7.65       5.74
H      10.08      10.48       2.49
H       8.42      11.89       3.74
H       5.62       9.05       5.24
H       4.01       8.24       3.49
H       3.78      12.30       2.05
H       5.35      12.96       3.90
C       1.64      12.43      13.74
C       2.55      13.26      13.12
C       3.08      12.89      11.87
C       2.65      11.67      11.31
C       1.72      10.90      11.99
C       4.01      13.73      11.13
C      11.43      12.10      12.38
C      10.54      12.55      11.41
C      10.01      11.62      10.50
C      10.41      10.28      10.60
C      11.29       9.91      11.61
C       9.04      12.04       9.49
C       3.82       5.15       9.82
C       2.91       5.98      10.45
C       2.38       5.61      11.70
C       2.81       4.39      12.25
C       3.74       3.62      11.57
C       1.45       6.45      12.43
C       7.33       4.82      11.19
C       8.22       5.27      12.16
C       8.76       4.34      13.07
C       8.35       3.00      12.97
C       7.48       2.63      11.96
C       9.72       4.76      14.07
C      10.87       2.13       1.97
C       9.95       1.30       2.59
C       9.43       1.67       3.84
C       9.86       2.89       4.40
C      10.79       3.66       3.72
C       8.50       0.83       4.58
C       1.08       2.46       3.33
C       1.97       2.01       4.30
C       2.50       2.94       5.21
C       2.10       4.28       5.11
C       1.22       4.65       4.10
C       3.47       2.52       6.22
C       8.68       9.41       5.89
C       9.60       8.58       5.26
C      10.13       8.95       4.01
C       9.70      10.17       3.46
C       8.77      10.94       4.14
C      11.06       8.11       3.28
C       5.17       9.74       4.52
C       4.29       9.30       3.55
C       3.75      10.22       2.64
C       4.16      11.56       2.74
C       5.03      11.93       3.76
C       2.79       9.80       1.64
N       1.21      11.27      13.19
N       4.34       0.44      11.45
N       5.14       0.84      10.47
N       5.29      14.39       9.60
N       4.59      13.34       9.98
N      11.79      10.80      12.49
N       8.42      13.25       9.49
N       7.62      13.19       8.45
N       7.74      12.01       7.83
N       8.62      11.26       8.47
N       7.30       1.91       8.76
N       8.47       2.22       8.83
N       9.60       2.49       8.87
N       4.25       3.99      10.38
N       1.12       7.72      12.11
N       0.32       8.12      13.09
N       0.18       7.11      13.96
N       0.87       6.06      13.59
N       6.97       3.52      11.08
N      10.34       5.96      14.07
N      11.14       5.91      15.11
N      11.82       4.73       0.02
N      10.14       3.98      15.10
N      11.46       9.19      14.81
N      10.29       9.50      14.74
N       9.16       9.77      14.70
N      11.29       3.29       2.52
N       8.17      14.12       4.26
N       7.37      13.72       5.24
N       7.22       0.17       6.11
N       7.92       1.22       5.73
N       0.72       3.76       3.22
N       4.08       1.32       6.22
N       4.89       1.37       7.26
N       4.77       2.55       7.88
N       3.88       3.30       7.24
N       5.20      12.65       6.95
N       4.04      12.34       6.88
N       2.90      12.07       6.84
N       8.26      10.57       5.33
N      11.39       6.84       3.60
N      12.19       6.44       2.62
N      12.33       7.45       1.75
N      11.64       8.50       2.13
N       5.53      11.04       4.63
N       2.17       8.60       1.64
N       1.37       8.65       0.60
N       0.69       9.83      15.69
N       2.37      10.58       0.61
N       1.05       5.37       0.90
N       2.22       5.06       0.97
N       3.35       4.79       1.01
