464

Al       6.09       6.09       0.00
Al       3.17      15.36      18.82
Al      12.44      12.44       0.00
Al      15.36       3.17      18.82
Al       6.68       7.54       2.98
Al       1.73      15.95      21.80
Al      11.85      11.00       2.98
Al      16.80       2.58      21.80
Al       2.58      16.80      15.85
Al      15.95       1.73      15.85
Al      11.00      11.85      34.67
Al       7.54       6.68      34.67
Al       9.27       9.27       4.19
Al       0.00      18.53      23.01
Al       0.00      18.53      14.64
Al       9.27       9.27      33.46
H       8.12       7.03       1.07
H       2.24      17.38      19.89
H      10.42      11.50       1.07
H      16.29       1.15      19.89
H       1.15      16.29      17.76
H      17.38       2.24      17.76
H      11.50      10.42      36.58
H       7.03       8.12      36.58
H       3.83       9.15       0.93
H       0.12      13.09      19.76
H      14.71       9.39       0.93
H      18.41       5.44      19.76
H       5.44      18.41      17.89
H      13.09       0.12      17.89
H       9.39      14.71      36.71
H       9.15       3.83      36.71
H       7.57       9.71       2.53
H      18.08      16.83      21.35
H      10.97       8.82       2.53
H       0.45       1.70      21.35
H       1.70       0.45      16.29
H      16.83      18.08      16.30
H       8.82      10.97      35.12
H       9.71       7.57      35.12
H       8.29       3.78       4.16
H       5.48      17.56      22.98
H      10.24      14.75       4.16
H      13.05       0.97      22.98
H       0.97      13.05      14.67
H      17.56       5.48      14.67
H      14.75      10.24      33.49
H       3.78       8.29      33.49
H      11.39       6.37       5.64
H       2.90       2.12      24.47
H       7.15      12.16       5.64
H      15.64      16.41      24.47
H      16.41      15.64      13.18
H       2.12       2.90      13.18
H      12.16       7.15      32.00
H       6.37      11.39      32.00
H       9.56       7.71      29.64
H       1.55       0.30      10.82
H       8.97      10.82      29.64
H      16.98      18.24      10.82
H      18.24      16.98      26.83
H       0.30       1.55      26.83
H      10.82       8.97       8.01
H       7.71       9.56       8.01
H       7.50       4.38      31.39
H       4.88      16.76      12.57
H      11.03      14.15      31.39
H      13.65       1.77      12.57
H       1.77      13.65      25.08
H      16.77       4.88      25.08
H      14.15      11.03       6.25
H       4.38       7.50       6.25
H       9.50       1.81       5.07
H       7.46       0.23      23.90
H       9.03      16.72       5.07
H      11.08      18.30      23.90
H      18.30      11.08      13.75
H       0.23       7.46      13.75
H      16.72       9.03      32.57
H       1.81       9.50      32.57
H      12.59       4.41       6.59
H       4.86       3.32      25.41
H       5.94      14.12       6.59
H      13.67      15.21      25.41
H      15.21      13.67      12.23
H       3.32       4.86      12.23
H      14.12       5.94      31.06
H       4.41      12.59      31.06
H       9.53       6.58      27.43
H       2.69       0.26       8.60
H       9.00      11.95      27.43
H      15.84      18.27       8.60
H      18.27      15.84      29.04
H       0.26       2.69      29.04
H      11.95       9.00      10.22
H       6.58       9.53      10.22
H       7.46       3.23      29.19
H       6.04      16.73      10.36
H      11.07      15.30      29.19
H      12.50       1.80      10.36
H       1.80      12.50      27.28
H      16.73       6.04      27.28
H      15.30      11.07       8.46
H       3.23       7.46       8.46
H      11.52       0.63       4.60
H       8.63       2.26      23.42
H       7.01      17.90       4.60
H       9.90      16.28      23.42
H      16.28       9.90      14.23
H       2.26       8.63      14.23
H      17.90       7.01      33.05
H       0.63      11.52      33.05
H      12.50       2.72       8.23
H       6.55       3.24      27.06
H       6.03      15.82       8.23
H      11.98      15.30      27.06
H      15.30      11.98      10.59
H       3.24       6.55      10.59
H      15.82       6.03      29.41
H       2.72      12.50      29.41
H      10.47       4.86      26.31
H       4.40       1.20       7.49
H       8.07      13.67      26.31
H      14.13      17.33       7.49
H      17.33      14.13      30.16
H       1.20       4.40      30.16
H      13.67       8.07      11.34
H       4.86      10.47      11.34
H      13.02      18.08       3.23
H       9.72       3.75      22.06
H       5.52       0.45       3.23
H       8.82      14.78      22.06
H      14.78       8.82      15.59
H       3.75       9.72      15.59
H       0.45       5.52      34.42
H      18.08      13.02      34.42
H      13.03      15.51       6.70
H      12.28       3.77      25.52
H       5.50       3.02       6.70
H       6.25      14.77      25.52
H      14.77       6.25      12.13
H       3.77      12.28      12.13
H       3.02       5.50      30.95
H      15.51      13.03      30.95
H      13.21      16.08       1.76
H      11.72       3.94      20.58
H       5.32       2.46       1.76
H       6.81      14.59      20.58
H      14.59       6.81      17.07
H       3.94      11.72      17.07
H       2.46       5.32      35.89
H      16.08      13.21      35.89
H      13.25      13.53       5.21
H      14.27       3.98      24.03
H       5.29       5.01       5.21
H       4.26      14.55      24.03
H      14.55       4.26      13.61
H       3.98      14.27      13.61
H       5.01       5.29      32.44
H      13.53      13.25      32.44
C       4.64       8.43       1.14
C       0.84      13.91      19.97
C      13.89      10.10       1.14
C      17.70       4.62      19.97
C       4.62      17.70      17.68
C      13.91       0.84      17.68
C      10.10      13.89      36.50
C       8.43       4.64      36.50
C       9.12       6.39       4.26
C       2.87      18.38      23.08
C       9.42      12.14       4.26
C      15.66       0.15      23.08
C       0.15      15.66      14.57
C      18.38       2.87      14.57
C      12.14       9.42      33.39
C       6.39       9.12      33.39
C       8.54       6.79      31.98
C       2.47      17.80      13.16
C      10.00      11.74      31.98
C      16.06       0.73      13.16
C       0.73      16.06      24.49
C      17.80       2.47      24.49
C      11.74      10.00       5.67
C       6.79       8.54       5.67
C       9.78       5.20       4.83
C       4.07       0.51      23.65
C       8.75      13.34       4.83
C      14.46      18.02      23.65
C      18.02      14.46      14.00
C       0.51       4.07      14.00
C      13.34       8.75      32.82
C       5.20       9.78      32.82
C       8.54       6.11      30.65
C       3.15      17.80      11.83
C       9.99      12.42      30.65
C      15.38       0.73      11.83
C       0.73      15.38      25.82
C      17.80       3.15      25.82
C      12.42       9.99       7.00
C       6.11       8.54       7.00
C       9.24       3.91       4.68
C       5.36      18.51      23.51
C       9.29      14.62       4.68
C      13.17       0.03      23.51
C       0.03      13.17      14.14
C      18.51       5.36      14.14
C      14.62       9.29      32.97
C       3.91       9.24      32.97
C      10.98       5.36       5.53
C       3.90       1.72      24.36
C       7.55      13.17       5.53
C      14.63      16.82      24.36
C      16.82      14.63      13.29
C       1.72       3.90      13.29
C      13.17       7.55      32.11
C       5.36      10.98      32.11
C       9.11       6.73      29.53
C       2.54      18.38      10.71
C       9.42      11.80      29.53
C      15.99       0.16      10.71
C       0.16      15.99      26.94
C      18.38       2.54      26.94
C      11.80       9.42       8.12
C       6.73       9.11       8.12
C       7.94       4.86      30.51
C       4.41      17.20      11.69
C      10.60      13.68      30.51
C      14.12       1.33      11.69
C       1.33      14.12      25.96
C      17.20       4.41      25.96
C      13.68      10.60       7.13
C       4.86       7.94       7.13
C       9.92       2.81       5.19
C       6.46       0.66      24.02
C       8.61      15.72       5.20
C      12.07      17.88      24.02
C      17.88      12.07      13.63
C       0.66       6.46      13.63
C      15.72       8.61      32.45
C       2.81       9.92      32.45
C      11.64       4.27       6.07
C       5.00       2.38      24.89
C       6.89      14.27       6.07
C      13.53      16.15      24.89
C      16.15      13.53      12.76
C       2.38       5.00      12.76
C      14.27       6.89      31.58
C       4.27      11.64      31.58
C       9.09       6.08      28.30
C       3.18      18.36       9.47
C       9.44      12.45      28.30
C      15.35       0.17       9.47
C       0.17      15.35      28.18
C      18.36       3.18      28.18
C      12.45       9.44       9.35
C       6.08       9.09       9.35
C       7.91       4.22      29.28
C       5.05      17.18      10.45
C      10.62      14.31      29.28
C      13.49       1.36      10.45
C       1.36      13.49      27.19
C      17.18       5.05      27.19
C      14.31      10.62       8.37
C       4.22       7.91       8.37
C      11.14       2.97       5.89
C       6.30       1.87      24.71
C       7.39      15.57       5.89
C      12.23      16.66      24.71
C      16.66      12.23      12.94
C       1.87       6.30      12.94
C      15.57       7.39      31.76
C       2.97      11.14      31.76
C       8.50       4.82      28.15
C       4.45      17.76       9.32
C      10.04      13.71      28.15
C      14.08       0.77       9.32
C       0.77      14.08      28.32
C      17.76       4.45      28.32
C      13.71      10.04       9.50
C       4.82       8.50       9.50
C      11.92       1.80       6.37
C       7.46       2.65      25.19
C       6.62      16.73       6.37
C      11.07      15.88      25.19
C      15.88      11.07      12.46
C       2.65       7.46      12.46
C      16.73       6.62      31.28
C       1.80      11.92      31.28
C       8.51       4.12      26.84
C       5.15      17.78       8.02
C      10.02      14.41      26.84
C      13.39       0.76       8.02
C       0.76      13.39      29.63
C      17.78       5.15      29.63
C      14.41      10.02      10.80
C       4.12       8.51      10.80
C      12.04       0.67       5.56
C       8.60       2.78      24.38
C       6.49      17.87       5.56
C       9.93      15.76      24.38
C      15.76       9.93      13.27
C       2.78       8.60      13.27
C      17.87       6.49      32.09
C       0.67      12.04      32.09
C      12.59       1.83       7.60
C       7.43       3.33      26.42
C       5.94      16.70       7.60
C      11.10      15.21      26.42
C      15.21      11.10      11.23
C       3.33       7.43      11.23
C      16.70       5.94      30.05
C       1.83      12.59      30.05
C       9.63       4.24      26.00
C       5.03       0.36       7.18
C       8.91      14.29      26.00
C      13.51      18.17       7.18
C      18.17      13.51      30.47
C       0.36       5.03      30.47
C      14.29       8.91      11.65
C       4.24       9.63      11.65
C      12.84      18.11       5.94
C       9.68       3.58      24.77
C       5.69       0.42       5.94
C       8.85      14.95      24.77
C      14.95       8.85      12.88
C       3.58       9.68      12.88
C       0.42       5.69      31.70
C      18.11      12.84      31.70
C      13.00      16.94       5.07
C      10.86       3.74      23.89
C       5.53       1.59       5.07
C       7.67      14.79      23.89
C      14.79       7.67      13.76
C       3.74      10.86      13.76
C       1.59       5.53      32.58
C      16.94      13.00      32.58
C      13.06      17.08       3.67
C      10.71       3.79      22.49
C       5.47       1.45       3.67
C       7.82      14.74      22.49
C      14.74       7.82      15.15
C       3.79      10.71      15.15
C       1.45       5.47      33.98
C      17.08      13.06      33.98
C      13.10      15.65       5.62
C      12.15       3.83      24.44
C       5.43       2.89       5.62
C       6.38      14.70      24.44
C      14.70       6.38      13.21
C       3.83      12.15      13.21
C       2.89       5.43      32.03
C      15.65      13.10      32.03
C      13.18      15.97       2.84
C      11.82       3.92      21.67
C       5.35       2.56       2.84
C       6.71      14.61      21.67
C      14.61       6.71      15.98
C       3.92      11.82      15.98
C       2.56       5.35      34.80
C      15.97      13.18      34.80
C      13.22      14.53       4.79
C      13.26       3.95      23.62
C       5.31       4.00       4.79
C       5.27      14.58      23.62
C      14.58       5.27      14.03
C       3.95      13.26      14.03
C       4.00       5.31      32.85
C      14.53      13.22      32.85
C      13.26      14.69       3.40
C      13.11       3.99      22.23
C       5.28       3.84       3.40
C       5.42      14.54      22.23
C      14.54       5.42      15.42
C       3.99      13.11      15.42
C       3.84       5.28      34.25
C      14.69      13.26      34.25
C      13.20      13.49       2.53
C      14.31       3.94      21.36
C       5.33       5.04       2.53
C       4.22      14.59      21.36
C      14.59       4.22      16.29
C       3.94      14.31      16.29
C       5.04       5.33      35.11
C      13.49      13.20      35.11
O       7.20       6.84       1.32
O       2.43      16.47      20.14
O      11.33      11.69       1.32
O      16.11       2.07      20.14
O       2.07      16.11      17.51
O      16.47       2.43      17.51
O      11.69      11.33      36.33
O       6.84       7.20      36.33
O       4.73       7.44       0.36
O       1.82      14.00      19.18
O      13.80      11.09       0.36
O      16.71       4.53      19.18
O       4.53      16.71      18.47
O      14.00       1.82      18.47
O      11.09      13.80      37.29
O       7.44       4.73      37.29
O       4.88       5.37      36.38
O       3.89      14.15      17.55
O      13.65      13.16      36.38
O      14.64       4.39      17.55
O       4.39      14.64      20.10
O      14.15       3.89      20.10
O      13.16      13.65       1.27
O       5.37       4.88       1.27
O       7.96       8.90       2.87
O       0.37      17.23      21.70
O      10.57       9.63       2.87
O      18.16       1.30      21.70
O       1.30      18.16      15.95
O      17.23       0.37      15.95
O       9.63      10.57      34.78
O       8.90       7.96      34.78
O       6.10       8.12       4.68
O       1.15      15.36      23.50
O      12.43      10.41       4.68
O      17.39       3.17      23.50
O       3.17      17.39      14.14
O      15.36       1.15      14.14
O      10.41      12.43      32.97
O       8.12       6.10      32.97
O       5.38       8.70       2.14
O       0.56      14.64      20.97
O      13.15       9.83       2.14
O      17.97       3.89      20.97
O       3.89      17.97      16.68
O      14.64       0.56      16.68
O       9.83      13.15      35.50
O       8.70       5.38      35.50
O       5.38       6.18       3.12
O       3.09      14.64      21.94
O      13.15      12.35       3.12
O      15.45       3.89      21.94
O       3.89      15.45      15.71
O      14.64       3.09      15.71
O      12.35      13.15      34.53
O       6.18       5.38      34.53
O       7.91       6.30       3.86
O       2.96      17.18      22.68
O      10.62      12.23       3.86
O      15.57       1.35      22.68
O       1.35      15.57      14.96
O      17.18       2.96      14.96
O      12.23      10.62      33.79
O       6.30       7.91      33.79
O       8.01       8.92       5.62
O       0.34      17.27      24.44
O      10.52       9.61       5.62
O      18.19       1.26      24.44
O       1.26      18.19      13.20
O      17.27       0.34      13.20
O       9.61      10.52      32.03
O       8.92       8.01      32.03
O       8.71      11.07       4.21
O      16.73      17.98      23.03
O       9.82       7.46       4.21
O       1.80       0.55      23.03
O       0.55       1.80      14.62
O      17.98      16.73      14.62
O       7.46       9.82      33.44
O      11.07       8.71      33.44
