142

Zn       6.07      10.25       8.96
Zn       6.11       7.04       8.83
H       2.80       3.09       8.27
H       9.49      14.18       9.56
H      10.09       6.89       7.94
H       2.08      10.35      10.00
H       4.19       3.04       4.80
H       8.19      14.48      13.02
H       9.25       7.78       2.66
H       3.45       9.80      15.80
H       5.11      16.35      10.87
H       7.39       0.99       6.86
H       4.74      12.56      11.70
H       3.40      12.74      10.60
H       4.43      11.29      10.48
H       7.41       5.09       6.10
H       8.01       6.04       7.48
H       8.81       4.52       6.98
H       8.13      12.74       6.20
H       7.93      11.29       7.23
H       6.64      11.77       6.14
H       4.03       4.42      11.43
H       5.47       5.46      11.58
H       4.22       5.88      10.42
H       8.71      14.55       6.58
H       3.62       2.53      11.09
H       4.43       5.00       4.19
H       2.78       5.00       3.52
H       3.51       6.52       4.00
H       8.00      12.75      13.83
H       8.18      10.98      13.75
H       9.50      11.95      14.35
H       1.12       8.29       6.03
H      10.83       8.94      11.86
H       1.03       5.81      10.20
H      11.10      11.33       7.69
H       3.83      10.32       1.04
H       8.76       7.35      16.73
H       3.88      11.22       4.86
H       8.20       5.92      13.08
H       8.69       6.75       4.50
H       4.00       9.60      12.07
C       6.24       8.69      11.48
C       6.00       8.62       6.33
C      10.11       8.73       9.01
C       2.05       8.50       8.93
C      10.90       9.74       9.61
C       1.26       7.49       8.34
C       4.96       9.47       2.76
C       7.53       8.01      15.01
C       4.98       9.43       4.17
C       7.37       7.90      13.62
C       6.03       8.78       4.83
C       6.34       8.61      12.99
C       7.12       8.29       4.10
C       5.40       9.32      13.76
C       7.13       8.35       2.69
C       5.53       9.42      15.15
C       6.00       8.88       1.99
C       6.64       8.81      15.80
C       5.88       8.81       0.59
C       6.84       8.94      17.19
C       5.40      14.50       9.75
C       6.90       2.84       7.92
C       3.55       8.47       8.94
C       8.62       8.79       8.94
C       5.31      13.09       9.71
C       6.96       4.25       8.01
C       6.78      13.00       7.87
C       5.47       4.25       9.83
C       6.89      14.40       7.83
C       5.44       2.85       9.86
C       6.19      15.17       8.79
C       6.16       2.11       8.88
C       6.28      16.59       8.81
C       6.11       0.70       8.85
C       2.88       5.30       5.66
C       9.24      12.03      12.21
C       2.13       6.34       6.27
C       9.92      10.92      11.63
C       1.83       6.30       7.65
C      10.31      10.95      10.27
C       2.03       5.09       8.36
C      10.18      12.14       9.53
C       2.66       4.03       7.73
C       9.59      13.25      10.13
C       3.15       4.14       6.42
C       9.09      13.20      11.43
C      10.73       7.64       8.40
C       1.43       9.60       9.55
C       3.88       2.97       5.87
C       8.43      14.44      11.94
C       8.37       7.94       1.99
C       4.50      10.14      15.96
C       4.76      15.30      10.82
C       7.51       2.08       6.79
C       4.43      12.36      10.67
C       7.85       5.03       7.10
C       7.42      12.16       6.80
C       4.75       5.03      10.87
C       7.74      15.05       6.80
C       4.65       2.15      10.91
C       3.43       5.46       4.27
C       8.69      11.94      13.60
C       1.50       7.42       5.46
C      10.32       9.74      12.44
C       1.56       4.93       9.75
C      10.63      12.24       8.13
C       3.80      10.14       2.13
C       8.67       7.30      15.63
C       3.90      10.12       4.97
C       8.26       6.99      12.81
C       8.30       7.73       4.84
C       4.24       9.95      13.10
N       6.01      12.36       8.80
N       6.23       4.93       8.93
O       6.31       9.87      11.01
O       6.08       7.43       6.76
O       6.07       7.60      10.87
O       5.88       9.70       6.99
O       4.14       9.56       9.20
O       8.03       7.67       8.88
O       4.10       7.34       8.73
O       8.08       9.94       8.91
O       4.14       1.97       6.52
O       8.17      15.39      11.22
O       8.50       7.81       0.78
O       4.78      10.97      16.81
O       3.92      14.89      11.62
O       8.08       2.59       5.83
O       7.44      16.10       6.24
O       5.08       1.19      11.54
O       1.29       7.33       4.25
O      10.19       9.63      13.65
O       1.71       3.90      10.41
O      10.52      13.26       7.45
O       2.85      10.52       2.82
O       9.48       6.68      14.94
O       3.20       9.53       5.78
O       8.90       7.38      11.84
O       8.81       8.32       5.78
O       3.53      10.80      13.65
