130

Zn       1.69       1.08       0.89
Zn      16.64       1.10       0.85
Zn       9.09      14.17       0.84
Zn       9.13       5.38      13.19
Zn      16.60       9.75       7.03
Zn      19.82       9.78       7.04
Zn      18.22      10.69       9.64
Zn      18.18      12.53       7.01
H      20.22       5.47       2.53
H      18.20       7.47       2.67
H      16.22       5.42       2.59
H      16.26       5.34       5.43
H      18.29       3.34       5.29
H      20.27       5.40       5.37
H      13.50      15.71       4.46
H      13.14      13.60       6.34
H      11.44      12.27       4.48
H      13.71      10.91       3.46
H      14.07      13.02       1.57
H      15.77      14.35       3.44
H      14.77       7.25      13.52
H      15.49       6.44      10.88
H      12.73       6.08      10.28
H      12.62       8.77       9.37
H      11.90       9.57      12.02
H      14.67       9.94      12.61
H      21.61      15.01       2.43
H      20.90      12.25       2.57
H      23.66      11.57       2.43
H      23.76      11.63       5.27
H      24.47      14.39       5.13
H      21.71      15.07       5.27
H      22.92       9.35      13.54
H      23.28      10.45      10.93
H      24.96       8.24      10.27
H      22.67       6.85       9.32
H      22.32       5.75      11.92
H      20.64       7.96      12.59
H      16.99      15.44      13.49
H      15.87      15.16      10.88
H      16.90      17.74      10.21
H      19.27      16.49       9.27
H      20.39      16.77      11.88
H      19.36      14.19      12.55
C      18.25       3.12       2.29
C      18.24       4.34       3.14
C      19.35       5.45       3.18
C      18.22       6.54       3.24
C      17.12       5.43       3.22
C      17.14       5.36       4.78
C      18.27       4.27       4.72
C      19.37       5.39       4.75
C      18.24       6.47       4.82
C      18.24       7.69       5.67
C      11.59      14.52       2.37
C      12.62      13.90       3.24
C      13.56      14.64       4.24
C      13.33      13.48       5.27
C      12.41      12.73       4.26
C      13.66      11.98       3.67
C      13.88      13.14       2.64
C      14.80      13.89       3.66
C      14.59      12.72       4.68
C      15.64      12.12       5.55
C      11.75       6.77      13.11
C      12.79       7.38      12.25
C      14.31       7.59      12.59
C      14.68       7.13      11.14
C      13.17       6.94      10.79
C      13.09       8.43      10.30
C      12.71       8.89      11.75
C      14.23       9.08      12.10
C      14.60       8.64      10.65
C      15.64       9.24       9.78
C      24.64      14.49       2.16
C      23.59      13.86       3.00
C      22.07      14.26       3.07
C      21.70      12.74       3.12
C      23.22      12.34       3.07
C      23.29      12.38       4.63
C      23.66      13.91       4.58
C      22.15      14.30       4.63
C      21.78      12.78       4.71
C      20.75      12.17       5.58
C      24.82       6.96      13.07
C      23.79       7.60      12.21
C      22.86       8.80      12.60
C      23.08       9.40      11.16
C      23.99       8.18      10.77
C      22.74       7.40      10.26
C      22.52       6.80      11.69
C      21.61       8.01      12.08
C      21.81       8.60      10.64
C      20.77       9.22       9.79
C      18.07      18.28      13.02
C      18.05      17.07      12.16
C      17.50      15.66      12.55
C      16.88      15.54      11.11
C      17.45      16.94      10.72
C      18.77      16.27      10.21
C      19.39      16.39      11.65
C      18.82      14.99      12.04
C      18.21      14.86      10.60
C      18.22      13.64       9.75
O      18.25       0.18       0.21
O      17.11       2.63       2.00
O      19.39       2.66       1.96
O      19.37       8.18       5.98
O      17.09       8.17       5.97
O      10.62      13.76       2.00
O      11.77      15.74       2.03
O      16.59      12.90       5.91
O      15.49      10.90       5.88
O      10.76       6.23      12.50
O      11.91       6.87      14.37
O      16.64       9.77      10.37
O      15.46       9.15       8.52
O      25.64      13.75       1.86
O      24.48      15.72       1.85
O      19.75      12.91       5.89
O      20.93      10.95       5.92
O      25.79       6.39      12.46
O      24.63       7.01      14.33
O      19.79       9.78      10.39
O      20.95       9.15       8.52
O      18.03      19.41      12.44
O      18.17      18.07      14.28
O      18.20      12.52      10.36
O      18.21      13.83       8.48
O      18.20      10.68       7.68
