48

Al       6.52       5.97       5.26
Al       9.84       5.97       5.28
H       4.84       6.75       3.72
H       8.20       4.39       5.95
H       9.39       4.01       9.61
H       8.40       5.48       9.43
H       5.08       4.73       1.27
H       6.07       3.25       1.41
H      10.24       8.85       7.07
H      11.92      10.14       8.33
H       6.82       3.20       7.13
H       8.59       2.03       8.37
H       3.05       1.84       4.48
H       6.30       9.95       4.57
C       8.16       8.37       5.47
C       8.20       5.82       2.84
C       4.87       3.53       5.36
C       4.85       6.21       7.67
C       4.85       6.42       9.14
C       8.19       5.70       1.36
C      10.51       5.89       9.96
C       2.54       6.26       0.54
C       7.19       5.01       0.67
C       5.85       7.14       9.82
C       9.25       5.04       9.96
C       5.93       4.19       0.85
C       8.15       9.85       5.62
C       9.18      10.58       6.31
C       7.10      10.53       5.03
C      10.21       9.93       7.06
C      11.14      10.66       7.77
C       4.88       2.05       5.57
C       3.86       1.32       5.00
C       5.92       1.40       6.30
C       6.88       2.12       7.08
C       7.86       1.45       7.78
O       7.03       7.79       5.42
O       9.34       5.82       3.42
O       3.73       4.11       5.34
O       5.97       6.05       7.10
O       5.99       4.11       5.20
O      10.36       6.18       7.11
O       9.29       7.79       5.34
O       7.06       5.89       3.40
O       4.85       6.51       4.66
O       8.18       5.35       5.82
F       3.54       7.01       1.07
F       6.84       7.77       9.14
