160

Zn       3.57       5.50      12.05
Zn       6.44       5.71      11.73
Zn       6.18       5.47       1.06
Zn       3.31       5.68       1.38
H       1.24       7.95       9.77
H       2.67       6.97      10.12
H       1.49       6.43       8.91
H       8.33       5.12      14.76
H       7.36       4.17      13.64
H       8.85       3.47      14.32
H       9.15       6.87       8.83
H       7.58       6.74       9.66
H       8.65       8.10      10.00
H       0.92       3.03      13.90
H       2.44       3.91      13.71
H       1.22       4.46      14.88
H       7.69      10.09      14.00
H       6.93       8.56      13.53
H       8.10       9.32      12.46
H       2.05       1.86      11.89
H       3.13       2.71      10.78
H       2.34       1.21      10.27
H       8.44       0.68      12.51
H       7.73       2.31      12.47
H       7.71       1.36      13.98
H       2.39       9.94      10.15
H       2.44       8.91      11.60
H       1.72      10.53      11.68
H       1.88       3.05       7.64
H       2.25       4.27       8.86
H       1.51       4.74       7.30
H       7.88       3.03       5.48
H       7.51       4.24       4.24
H       8.26       4.72       5.81
H       1.76       4.74       4.98
H       2.69       3.63       3.94
H       1.94       3.04       5.45
H       8.00       4.75       8.13
H       7.08       3.65       9.17
H       7.83       3.06       7.67
H       8.51       7.93       3.33
H       7.07       6.96       2.97
H       8.24       6.41       4.19
H       1.17       5.11      22.30
H       2.12       4.16      23.42
H       0.63       3.47      22.74
H       0.60       6.84       4.28
H       2.17       6.71       3.45
H       1.09       8.07       3.11
H       8.56       3.03      23.16
H       7.04       3.92      23.35
H       8.26       4.46      22.17
H       1.76      10.12      23.10
H       2.52       8.58      23.53
H       1.64       9.29       0.69
H       7.69       1.83       1.18
H       6.63       2.66       2.32
H       7.42       1.16       2.79
H       1.29       0.66       0.68
H       2.00       2.28       0.70
H       1.71       1.36      23.14
H       7.39       9.89       2.89
H       7.32       8.87       1.43
H       8.03      10.50       1.36
H       8.25       6.89      16.54
H       7.77       6.61      19.43
H       6.58       6.21      21.79
H       1.23       6.87      20.51
H       1.71       6.59      17.62
H       2.91       6.20      15.26
C       5.25       3.02      12.13
C       4.96       6.16      14.52
C       5.01       8.21      11.78
C       4.79       4.91       9.37
C       4.49       2.99       0.99
C       4.52       6.15      22.53
C       4.73       8.18       1.31
C       4.97       4.89       3.74
C       0.82       6.21      10.93
C       9.18       4.97      12.82
C       9.30       6.26      10.88
C       0.70       4.86      12.83
C       4.98       9.71      12.01
C       5.19       1.51      12.06
C       6.16      10.32      12.51
C       3.98       0.91      11.64
C       6.28       0.72      12.47
C       3.87      10.51      11.64
C       5.50       6.43      20.24
C       3.08       6.57      20.45
C       2.95       6.57      19.07
C       4.09       6.51      18.23
C       3.99       6.42      16.81
C       6.40       6.59      16.60
C       6.53       6.59      17.98
C       5.39       6.51      18.83
C       4.36       6.41      21.08
C       5.13       6.42      15.98
C       4.79       4.40       7.95
C       4.97       4.38       5.16
C       3.61       4.23       7.18
C       6.15       4.22       5.93
C       3.71       4.19       5.78
C       6.05       4.20       7.33
C       8.92       6.18       2.17
C       0.57       4.94       0.29
C       0.45       6.23       2.23
C       9.04       4.83       0.28
C       4.76       9.68       1.09
C       4.54       1.48       1.06
C       3.58      10.29       0.62
C       5.76       0.87       1.45
C       3.44       0.69       0.66
C       5.88      10.47       1.44
C       1.61       6.93       9.88
C       8.39       4.39      13.94
C       8.62       7.02       9.78
C       1.37       4.03      13.88
C       7.27       9.53      13.16
C       2.82       1.72      11.12
C       7.61       1.31      12.88
C       2.54       9.93      11.25
C       2.24       4.08       7.79
C       7.52       4.06       5.32
C       2.46       3.89       4.98
C       7.30       3.91       8.13
C       8.13       6.91       3.22
C       1.10       4.38      23.12
C       1.12       6.99       3.32
C       8.11       4.03      23.18
C       2.19       9.54      23.93
C       6.93       1.68       1.96
C       2.11       1.28       0.29
C       7.22       9.89       1.80
N       1.45       5.51      11.91
N       8.56       5.65      11.83
N       8.30       5.48       1.20
N       1.19       5.62       1.28
O       4.25       3.62      12.66
O       6.27       3.64      11.67
O       5.97       6.05      13.77
O       3.74       6.01      14.09
O       6.15       7.72      11.52
O       3.94       7.52      11.86
O       3.77       4.74      10.13
O       5.81       5.57       9.73
O       5.49       3.58       0.45
O       3.48       3.61       1.45
O       3.52       6.04      23.29
O       5.75       6.01      22.96
O       3.59       7.68       1.58
O       5.80       7.49       1.25
O       5.99       4.70       2.97
O       3.95       5.55       3.38
O       7.55       6.76      15.87
O       7.82       6.70      18.45
O       6.75       6.33      20.77
O       1.93       6.75      21.18
O       1.67       6.68      18.60
O       2.73       6.32      16.28
