156

Al       5.30      18.97      21.89
Al       1.33       6.37       7.30
Al       1.99      19.04      21.89
Al       4.64       6.30       7.30
H       1.28       9.37      13.28
H       5.35      15.97      15.91
H       5.34      15.96      27.86
H       1.29       9.38       1.32
H       4.62       3.28       1.33
H       2.02      22.05      27.85
H       2.04      22.04      15.91
H       4.60       3.30      13.28
H       4.89      11.79      11.37
H       1.74      13.54      17.81
H       1.75      13.55      25.97
H       4.88      11.79       3.21
H       1.55       0.89       3.20
H       5.08      24.44      25.98
H       5.06      24.46      17.81
H       1.57       0.87      11.37
H       6.22      13.42      12.26
H       0.41      11.92      16.92
H       0.42      11.92      26.85
H       6.22      13.42       2.33
H       2.88      24.59       2.33
H       3.75       0.75      26.86
H       3.72       0.75      16.92
H       2.91      24.59      12.26
H       6.40      15.08      14.07
H       0.23      10.25      15.12
H       0.24      10.25      28.66
H       6.39      15.08       0.52
H       3.06      22.92       0.52
H       3.57       2.41      28.66
H       3.55       2.42      15.11
H       3.09      22.92      14.07
H       3.60      17.23      21.88
H       3.03       8.10       7.30
H       0.28      20.77      21.89
H       6.35       4.57       7.30
C       3.66      20.59      20.05
C       2.97       4.75       9.13
C       2.97       4.75       5.46
C       3.66      20.59      23.72
C       0.35      17.42      23.72
C       6.28       7.92       5.46
C       6.29       7.92       9.13
C       0.35      17.41      20.05
C       0.52       8.65      11.41
C       6.12      16.68      17.77
C       6.11      16.68      26.00
C       0.52       8.66       3.19
C       3.84       4.01       3.19
C       2.79      21.33      25.99
C       2.80      21.32      17.77
C       3.83       4.01      11.41
C       0.58       9.56      12.46
C       6.05      15.78      16.72
C       6.05      15.77      27.05
C       0.59       9.56       2.13
C       3.91       3.10       2.13
C       2.73      22.24      27.05
C       2.74      22.23      16.72
C       3.90       3.11      12.46
C       6.42      10.72      12.46
C       0.21      14.62      16.72
C       0.21      14.62      27.05
C       6.42      10.72       2.13
C       3.10       1.95       2.13
C       3.53      23.39      27.05
C       3.53      23.39      16.72
C       3.11       1.95      12.46
C       5.54      10.92      11.39
C       1.09      14.41      17.79
C       1.10      14.42      25.99
C       5.54      10.92       3.19
C       2.21       1.76       3.19
C       4.42      23.58      25.99
C       4.41      23.59      17.79
C       2.23       1.75      11.39
C       5.47      10.00      10.35
C       1.16      15.33      18.83
C       1.17      15.34      24.94
C       5.47      10.00       4.24
C       2.14       2.68       4.23
C       4.49      22.66      24.95
C       4.48      22.67      18.84
C       2.16       2.66      10.35
C       6.29       8.85      10.31
C       0.35      16.48      18.87
C       0.35      16.48      24.90
C       6.29       8.85       4.28
C       2.97       3.82       4.28
C       3.66      21.52      24.90
C       3.66      21.52      18.88
C       2.97       3.81      10.31
C       6.38      13.08      13.29
C       0.25      12.25      15.89
C       0.25      12.26      27.88
C       6.38      13.08       1.30
C       3.05      24.93       1.30
C       3.58       0.41      27.88
C       3.56       0.41      15.89
C       3.07      24.92      13.29
C       6.48      14.02      14.31
C       0.15      11.31      14.88
C       0.15      11.31      28.90
C       6.48      14.02       0.28
C       3.15      23.98       0.28
C       3.48       1.35      28.90
C       3.46       1.35      14.87
C       3.17      23.98      14.31
C       0.11      13.63      15.63
C       6.53      11.71      13.55
C       6.53      11.71       1.04
C       0.10      13.63      28.14
C       3.42      24.38      28.14
C       3.21       0.96       1.04
C       3.21       0.96      13.55
C       3.42      24.38      15.63
Cl       1.52       7.25      11.52
Cl       5.12      18.09      17.66
Cl       5.10      18.08      26.11
Cl       1.53       7.26       3.08
Cl       4.86       5.40       3.08
Cl       1.78      19.94      26.10
Cl       1.80      19.92      17.66
Cl       4.83       5.42      11.52
Cl       4.37      10.38       9.07
Cl       2.27      14.96      20.12
Cl       2.28      14.97      23.67
Cl       4.35      10.37       5.51
Cl       1.02       2.31       5.50
Cl       5.61      23.02      23.68
Cl       5.58      23.05      20.12
Cl       1.06       2.29       9.06
O       2.53      20.31      23.23
O       4.10       5.03       5.95
O       4.11       5.03       8.64
O       2.53      20.30      20.54
O       5.84      17.70      20.54
O       0.79       7.63       8.64
O       0.79       7.64       5.95
O       5.84      17.70      23.23
O       4.79      20.19      20.48
O       1.85       5.15       8.70
O       1.84       5.15       5.89
O       4.79      20.18      23.30
O       1.47      17.82      23.30
O       5.16       7.52       5.89
O       5.16       7.52       8.70
O       1.47      17.82      20.48
O       3.63      18.20      21.89
O       3.00       7.13       7.30
O       0.32      19.80      21.89
O       6.32       5.53       7.30
