296

Y       8.79       9.59       6.51
Y       6.05      10.99       9.81
Y       4.91       5.44       2.20
Y       2.29       2.09       0.82
Y       5.83      13.93      16.10
Y       8.56      12.52      12.80
Y       9.71      18.07      20.41
Y      12.33      21.43      21.79
H       6.19       9.30       5.05
H       7.24      10.10       4.17
H       2.21       9.91       3.66
H       9.24       8.58       3.77
H       3.84       9.07       5.85
H       3.83      10.25       6.88
H       3.37       9.91       9.10
H      10.95      10.94      10.22
H       7.81       5.67       1.17
H       7.83       5.99       2.75
H       2.31       6.74       2.48
H       2.31       6.52       0.94
H       5.27       8.08       3.22
H       6.38       7.85       2.12
H       7.44       0.82       1.21
H       7.46       2.32       1.81
H       6.82      20.32       1.73
H       5.23      20.34       1.80
H       7.59      14.05       5.52
H       8.22      16.08       9.98
H       7.47      17.50       8.13
H       6.11      16.42       2.76
H      11.03      16.05       3.27
H       9.61      16.23       5.28
H       4.99       7.13       9.89
H       4.05       4.45       5.84
H       3.34       3.59       8.04
H       9.93       6.62       9.33
H      10.83       8.13      13.96
H       3.77       5.92      13.23
H       6.09       2.55       4.88
H      10.35      18.81       3.69
H      11.23      19.62       5.83
H       1.13       1.92       4.72
H       7.91       5.98       7.30
H       7.14       3.79       8.13
H       8.43      14.21      17.57
H       7.37      13.41      18.44
H      12.41      13.60      18.95
H       5.38      14.93      18.84
H      10.78      14.44      16.76
H      10.79      13.26      15.73
H      11.25      13.60      13.51
H       3.66      12.57      12.39
H       6.81      17.84      21.44
H       6.78      17.52      19.86
H      12.31      16.78      20.13
H      12.31      16.99      21.67
H       9.34      15.43      19.39
H       8.24      15.66      20.49
H       7.17      22.69      21.40
H       7.15      21.19      20.80
H       7.79       3.19      20.88
H       9.38       3.17      20.81
H       7.03       9.46      17.09
H       6.40       7.43      12.63
H       7.14       6.01      14.48
H       8.51       7.09      19.86
H       3.59       7.46      19.34
H       5.00       7.28      17.33
H       9.63      16.38      12.72
H      10.56      19.06      16.77
H      11.28      19.92      14.57
H       4.68      16.89      13.28
H       3.79      15.38       8.65
H      10.84      17.59       9.38
H       8.52      20.96      17.73
H       4.27       4.70      18.92
H       3.38       3.89      16.78
H      13.48      21.59      17.89
H       6.71      17.53      15.31
H       7.47      19.73      14.48
C       6.95      16.68       5.46
C       7.46      15.88       6.67
C       7.69      14.51       6.50
C       8.02      13.68       7.58
C       8.21      14.26       8.85
C       8.05      15.64       9.00
C       7.64      16.44       7.94
C       8.19      12.23       7.27
C       8.48      13.52      10.12
C       7.75      16.39       4.18
C       7.18      16.36       2.91
C       7.99      16.29       1.77
C       9.39      16.23       1.89
C       9.95      16.16       3.16
C       9.15      16.25       4.30
C       7.38      16.28       0.41
C      10.27      16.28       0.66
C       5.43      16.35       5.30
C       7.08      18.23       5.70
C       3.66       4.89      10.56
C       4.11       5.29       9.14
C       4.78       6.52       9.01
C       5.17       7.00       7.77
C       4.90       6.26       6.61
C       4.26       5.02       6.74
C       3.86       4.54       7.99
C       5.95       8.28       7.73
C       5.19       6.77       5.24
C       3.01       6.13      11.21
C      10.13       6.93      10.36
C       9.66       8.17      10.77
C       9.95       8.62      12.07
C      10.62       7.77      12.95
C       3.21       6.53      12.53
C       8.88       8.98       9.76
C       9.67      10.03      12.44
C       4.93       4.41      11.32
C       2.60       3.75      10.58
C       7.47       1.26       6.80
C       6.90       0.64       5.52
C       6.21       1.50       4.65
C       5.72       1.04       3.43
C       9.57      20.72       3.08
C      10.21      19.85       3.96
C      10.72      20.32       5.17
C       5.15       2.04       2.47
C       9.33      20.23       1.69
C       7.99       2.68       6.47
C       8.77       2.80       5.31
C       1.33       4.03       4.85
C       8.88       5.20       5.56
C       8.16       5.07       6.75
C       7.72       3.83       7.21
C       2.25       4.01       3.67
C       9.15       6.59       5.06
C       6.32       1.24       7.84
C      12.39      21.49       7.37
C       7.67       6.83      17.15
C       7.16       7.63      15.94
C       6.93       9.00      16.11
C       6.60       9.83      15.03
C       6.41       9.25      13.76
C       6.57       7.87      13.61
C       6.97       7.07      14.67
C       6.43      11.29      15.34
C       6.13      10.00      12.49
C       6.86       7.12      18.43
C       7.43       7.15      19.70
C       6.63       7.22      20.84
C       5.23       7.28      20.72
C       4.66       7.35      19.45
C       5.47       7.26      18.32
C       7.23       7.23      22.20
C       4.34       7.23      21.95
C       9.18       7.16      17.31
C       7.54       5.29      16.91
C      10.96      18.62      12.05
C      10.51      18.22      13.47
C       9.83      16.99      13.60
C       9.45      16.51      14.84
C       9.72      17.25      16.00
C      10.35      18.49      15.87
C      10.76      18.97      14.62
C       8.67      15.23      14.88
C       9.43      16.74      17.38
C      11.61      17.38      11.40
C       4.49      16.58      12.25
C       4.96      15.34      11.84
C       4.67      14.89      10.54
C       4.00      15.74       9.66
C      11.41      16.98      10.08
C       5.74      14.53      12.85
C       4.94      13.48      10.17
C       9.69      19.10      11.29
C      12.02      19.77      12.03
C       7.14      22.25      15.81
C       7.72      22.87      17.09
C       8.41      22.01      17.96
C       8.90      22.47      19.18
C       5.04       2.79      19.53
C       4.40       3.66      18.65
C       3.89       3.19      17.44
C       9.47      21.47      20.15
C       5.28       3.28      20.92
C       6.62      20.84      16.14
C       5.85      20.72      17.30
C      13.28      19.48      17.76
C       5.73      18.31      17.05
C       6.45      18.44      15.86
C       6.90      19.68      15.40
C      12.37      19.50      18.95
C       5.47      16.92      17.55
C       8.30      22.27      14.77
C       2.23       2.02      15.24
O       9.03      11.91       6.36
O       7.50      11.31       7.83
O       7.83      12.44      10.37
O       9.28      14.00      10.98
O      11.03      19.38      22.07
O       6.33      15.62       0.16
O      10.64      17.45       0.30
O       2.71      15.20       0.09
O       7.09       8.23       7.17
O       5.44       9.30       8.29
O       5.57       5.94       4.36
O       4.98       8.02       4.97
O       9.45       9.14       8.62
O       7.73       9.37      10.07
O       9.30      10.36      13.61
O       9.80      10.92      11.52
O       5.50       3.25       2.61
O       4.41       1.59       1.54
O       8.33      19.52       1.36
O      10.26      20.47       0.84
O       3.19       4.85       3.63
O       2.06       3.10       2.80
O       9.47       7.46       5.93
O       8.97       6.87       3.82
O       6.89      10.00       5.08
O       9.24       9.56       3.96
O       3.28       9.81       6.21
O       3.68      10.77       9.46
O       7.24       5.71       2.00
O       2.90       6.75       1.69
O       5.41       7.88       2.25
O       8.02       1.57       1.54
O       6.02      20.91       1.83
O       5.58      11.60      16.25
O       7.12      12.20      14.78
O       6.79      11.07      12.24
O       5.34       9.52      11.63
O       3.59       4.13       0.54
O       8.28       7.89      22.45
O       3.98       6.06      22.32
O      11.91       8.31      22.52
O       7.53      15.28      15.44
O       9.17      14.21      14.32
O       9.04      17.57      18.25
O       9.63      15.49      17.64
O       5.17      14.37      13.99
O       6.89      14.14      12.54
O       5.32      13.15       9.00
O       4.82      12.59      11.09
O       9.11      20.26      20.00
O      10.21      21.92      21.08
O       6.29       3.99      21.25
O       4.35       3.04      21.77
O      11.42      18.66      18.98
O      12.56      20.41      19.81
O       5.15      16.05      16.68
O       5.65      16.64      18.79
O       7.73      13.51      17.54
O       5.37      13.95      18.65
O      11.34      13.70      16.40
O      10.94      12.74      13.15
O       7.38      17.80      20.61
O      11.71      16.76      20.92
O       9.21      15.63      20.36
O       6.60      21.95      21.07
O       8.59       2.60      20.78
F       4.77      16.38       6.49
F       4.78      17.24       4.48
F       5.25      15.11       4.78
F       6.22      18.67       6.66
F       8.34      18.55       6.10
F       6.83      18.94       4.57
F       5.80       5.44      11.51
F       5.60       3.47      10.61
F       4.66       3.89      12.54
F       2.08       3.57      11.82
F       3.10       2.55      10.17
F       9.44       4.05       9.75
F       9.42      21.05       7.89
F       5.35       2.13       7.48
F       6.72       1.55       9.10
F      12.04      20.28       7.87
F       5.43      21.28       6.40
F       1.41       1.15       8.37
F       9.84       7.13      16.12
F       9.83       6.27      18.13
F       9.36       8.40      17.84
F       8.40       4.84      15.95
F       6.28       4.96      16.51
F       7.79       4.57      18.04
F       8.81      18.07      11.10
F       9.01      20.04      12.00
F       9.96      19.62      10.07
F      12.53      19.94      10.79
F      11.52      20.96      12.44
F       5.18      19.46      12.86
F       5.19       2.46      14.72
F       9.27      21.38      15.13
F       7.89      21.96      13.52
F       2.58       3.24      14.74
F       9.19       2.23      16.21
F      13.20      22.36      14.24
