94

Zn       8.74       8.05       9.61
Zn       5.94       8.05       9.61
H       9.48       7.74      13.84
H      13.51       6.37       8.28
H       1.16       9.96      10.69
H      13.52       9.96      10.69
H       1.16      10.03       8.92
H      13.52      10.03       8.92
H       9.49       7.35      16.32
H       5.19       7.35      16.32
H       9.49       7.38       2.89
H       5.19       7.38       2.89
H       9.48       7.78       5.37
H       5.20       7.74      13.84
H       5.20       7.78       5.37
H       8.60      14.91       7.83
H       6.04      14.91       7.86
H       8.60       1.19       7.82
H       6.05       1.19       7.85
H       5.18      14.97       9.40
H       9.50      14.97       9.36
H       8.24       1.19      11.56
H       6.48       1.19      11.57
H       2.02       8.71      13.42
H       8.24      14.91      11.56
H      12.66       8.71      13.42
H       6.48      14.91      11.58
H      13.58       6.09      10.64
H       1.11       6.09      10.64
H       1.17       7.97       7.53
H      13.52       7.97       7.53
H       1.17       6.37       8.28
C       7.34       5.44       9.60
C       6.09       0.78       8.87
C       6.08      15.31       8.88
C       8.58      15.31       8.85
C       7.34      12.10       9.60
C       7.34       1.33       9.60
C       7.34      14.77       9.60
C       7.34       7.96      12.21
C       7.36      15.31      11.05
C       7.36       0.79      11.05
C       7.34      13.32       9.60
C       7.34       7.09      17.92
C       7.34       2.78       9.59
C       7.34       4.00       9.59
C       0.79       7.12      10.87
C      13.89       7.12      10.87
C       0.77       7.39       8.38
C      13.91       7.39       8.38
C       1.29       8.02       9.70
C      13.39       8.02       9.70
C      13.91       9.48       9.78
C       0.77       9.48       9.78
C       8.56       7.48       3.44
C      11.94       8.03       9.68
C       2.74       8.03       9.68
C       7.34      10.66       9.61
C       7.34       7.98       7.00
C       8.55       7.67      14.40
C       6.13       7.67      14.40
C       8.56       7.45      15.77
C       6.12       7.45      15.77
C       7.34       7.33      16.47
C       7.34       7.78      13.70
C       6.13       7.48       3.44
C       7.34       7.10       1.30
C       1.42       7.36      12.24
C      13.26       7.36      12.24
C       8.55       7.70       4.81
C       6.13       7.70       4.81
C       7.34       7.80       5.51
C       7.34       7.35       2.74
C       8.58       0.78       8.84
N       6.15       6.91      18.55
N       8.53       6.91      18.55
N       6.16       6.92       0.66
N       8.53       6.92       0.66
N      10.79       8.04       9.64
N       3.89       8.04       9.64
O       8.48       6.01       9.60
O       1.60       8.68      12.54
O      12.96       6.46      12.99
O      13.09       8.68      12.54
O       6.20       6.01       9.60
O       8.48       8.03      11.64
O       6.20       8.03      11.64
O       8.48      10.09       9.61
O       6.20      10.09       9.61
O       8.48       8.03       7.57
O       6.20       8.04       7.57
O       1.72       6.46      12.99
F       4.93       1.26       9.52
F       9.75       1.26       9.48
