118

Zn       8.73       7.47      11.80
Zn       5.79       7.48      11.80
H       6.39      10.66      22.67
H       4.92       0.80      12.87
H       8.69       0.68      10.81
H       4.99      14.18      10.68
H       1.10       7.91       9.67
H      13.44       5.64      12.93
H       1.09       7.01      13.88
H      13.43       9.29      10.62
H       4.71       7.62       9.44
H       3.22       7.99       8.63
H       9.82       5.34      12.80
H       7.99       4.26       0.95
H      11.31       4.68      13.33
H       4.69       7.29      14.13
H       3.20       6.92      14.92
H      11.31      10.27      10.26
H       9.82       9.61      10.80
H       5.99      11.89       1.28
H       6.20      10.88       2.73
H       8.06       4.01      20.89
H       8.30       3.02      22.34
H       9.24       8.05       7.56
H       9.16       8.15       5.05
H       5.31       8.64      16.02
H       9.16      10.70      12.87
H       9.64      12.24      13.49
H       4.04       2.87      13.49
H       4.86       4.39      13.19
H       9.16       4.23      10.76
H       9.63       2.68      10.13
H       4.88      10.58      10.39
H       4.09      12.11      10.07
H       5.26       8.53      18.52
H       5.48       5.98       7.60
H       9.40       7.31      16.04
H       5.41       6.05       5.09
H       9.36       7.24      18.55
H       8.73      14.25      12.79
C       7.11      10.07      11.48
C       8.50       7.59      16.60
C       6.24       6.50       5.64
C       8.48       7.54      17.99
C       7.27       7.12       4.95
C       7.30       7.85      18.67
C       7.95      13.69      12.29
C       5.77       1.32      12.43
C       7.91       1.25      11.30
C       5.83      13.65      11.13
C       8.06      12.29      12.21
C       7.11       4.88      12.12
C       5.87       2.72      12.56
C       8.03       2.65      11.39
C       5.91      12.25      11.01
C       7.03      11.53      11.55
C       7.01       3.42      12.04
C       6.85      14.36      11.75
C       6.79       0.59      11.82
C       7.37       7.09       9.22
C       7.36       7.88      14.38
C       1.62       7.74      10.60
C       8.36       7.67       5.62
C      12.91       6.46      12.44
C       1.61       7.19      12.95
C      12.91       8.47      11.12
C       3.02       7.71      10.63
C      11.51       6.48      12.42
C       3.02       7.21      12.93
C      11.50       8.46      11.16
C       0.91       7.46      11.77
C      13.62       7.46      11.78
C       7.51       6.41      20.62
C       6.16       8.26      17.97
C       6.85       8.51       2.99
C       6.95       8.84      20.88
C       7.51       6.10       2.74
C       6.93       8.63      22.34
C       7.47       6.29       1.27
C       7.23       7.36      22.90
C       7.15       7.56       0.71
C       7.52       6.25      22.07
C       6.83       8.66       1.55
C       6.62       9.71      23.15
C       8.40       7.62       7.01
C       7.75       5.21       0.47
C       6.51       9.92       0.96
C       7.82       4.99      22.65
C       6.19       8.32      16.58
C       7.35       7.04       7.73
C       7.35       7.95      15.88
C       6.28       6.46       7.03
N       7.26       7.71      20.10
N       8.09       3.90      21.90
N       9.17      11.71      12.77
N       4.88       3.37      13.25
N       9.16       3.22      10.84
N       4.92      11.59      10.32
N       7.20       7.24       3.51
N       3.71       7.47      11.78
N      10.81       7.47      11.79
N       3.74       7.97       9.50
N      10.80       5.50      13.06
N       3.73       6.95      14.06
N      10.79       9.44      10.54
N       6.20      11.00       1.72
O       8.23       9.49      11.78
O       6.57       9.42       3.79
O       6.73       9.93      20.35
O       7.81       5.04       3.28
O       6.08       5.57      12.46
O       8.23       5.45      11.83
O       6.08       9.38      11.14
O       8.47       7.40       9.77
O       6.26       8.11      13.77
O       8.46       7.57      13.83
O       6.28       6.83       9.84
O       7.70       5.47      19.83
