110

Zn      10.56       9.40       7.89
Zn       7.94       8.65       7.24
H      12.91      16.18      10.32
H       4.84       2.06       6.60
H       5.59       5.24       0.90
H      13.65      11.02      14.32
H      10.06      13.41       8.38
H       8.20       4.68       7.59
H       8.43       7.57       3.35
H      10.29       9.65      11.87
H      11.92       2.90      10.32
H       6.01      15.31       6.26
H       6.57       7.22      14.04
H      12.48       9.38       1.16
H      11.17      14.66       9.53
H       6.60       3.57       7.35
H       7.33       6.24       2.29
H      11.89      10.06      12.93
H       1.99       5.43       6.21
H      16.50      10.91      10.93
H      13.15       8.29       7.36
H       5.35       9.35       8.27
H      11.84      11.35       9.79
H       6.65       6.48       5.60
H       4.37       5.45       5.44
H      14.12      11.67      10.79
H      14.27       5.47       6.92
H      13.65       6.44       8.15
H       4.22      10.20      10.99
H       4.84       8.84      10.21
H       6.25      11.67       6.39
H       5.39      13.03       5.70
H      11.90       6.46       9.65
H      12.65       5.20      10.54
H      12.24       9.79       4.77
H      13.10      10.28       3.33
H       6.60       7.35      10.41
H       5.84       6.65      11.79
C       9.92       8.79       5.06
C       8.59       8.91      10.12
C       8.57      11.54       7.43
C       9.90       6.52       8.06
C      12.10      16.56       9.70
C       5.73       1.65       7.09
C       6.40       5.80       0.43
C      12.76      10.60      14.79
C       4.55       6.30       6.09
C      13.94      10.89      10.04
C       5.80       6.86       6.16
C      12.69      10.74       9.50
C       5.07       8.46       7.70
C      13.42       8.98       8.15
C       3.77       7.93       7.75
C      14.72       9.01       8.68
C       3.48       6.84       6.86
C      15.01      10.05       9.63
C       2.70       8.50       8.53
C      15.80       8.15       8.23
C      15.56       6.93       7.46
C       2.93       9.44       9.62
C       2.18       6.32       6.80
C      16.31      10.19      10.12
C      10.03       5.11       8.53
C       8.22      12.99       7.44
C       8.46       8.66      11.58
C      10.27       8.56       3.63
C      11.10       3.29       9.72
C       6.89      14.89       6.75
C       7.39       7.75      13.56
C      11.60       8.95       1.64
C      11.11       4.63       9.34
C       7.02      13.50       6.85
C       7.38       7.93      12.18
C      11.47       9.06       3.03
C       8.99       4.25       8.20
C       9.16      13.86       7.97
C       9.50       9.12      12.38
C       9.33       7.91       2.84
C       8.96       2.90       8.58
C       9.02      15.26       7.93
C       9.53       8.94      13.77
C       9.47       7.74       1.46
C      10.06       2.41       9.34
C       7.86      15.78       7.26
C       8.43       8.26      14.38
C      10.63       8.33       0.85
C       7.89       2.01       8.18
C      10.02      16.17       8.46
C      10.60       9.46      14.59
C       8.48       7.08       0.64
C      11.12      15.71       9.25
C       6.72       2.50       7.51
C       7.38       6.36       1.21
C      11.77      10.05      14.02
N       6.05       7.95       6.94
N      12.45       9.81       8.53
N      14.31       6.37       7.37
N       4.18       9.62      10.17
N       6.03      12.67       6.39
N      12.17       5.47       9.70
N      12.46       9.64       3.79
N       6.33       7.45      11.40
O      10.87       9.01       5.90
O       7.70       8.45       9.33
O       7.62      10.68       7.33
O      10.80       7.37       8.40
O       8.68       8.76       5.36
O       9.61       9.57       9.73
O       9.81      11.25       7.50
O       8.88       6.81       7.35
