148

Al      -0.01      23.99      12.73
Al       3.59       0.01      12.69
Al       5.60      11.98      25.34
Al       2.28      12.01      25.31
H       5.28       1.77      12.70
H       1.65      22.37      12.13
H       3.92      10.28      24.92
H       1.04      13.67       0.49
H       2.53      10.18      21.72
H       2.83       8.48      19.92
H       5.73       6.68      21.07
H       3.48       5.29      16.98
H       0.01       1.82      16.30
H      -0.28       3.52      18.11
H       6.24      15.37       2.23
H      -0.25      17.15       3.97
H       2.74      15.66       5.73
H      -0.07      20.35       6.95
H       3.10      20.63      10.46
H       2.94      18.85       8.73
H       2.09      15.33      22.76
H       2.23      17.11      21.01
H       6.12      15.63      19.89
H       2.78      20.38      18.15
H       0.17      20.69      15.29
H       0.03      18.91      17.03
H       3.00       8.65       2.22
H       3.18       6.88       3.97
H       6.04       8.16       5.58
H       3.52       3.82       7.07
H      -0.04       3.33      10.47
H       6.38       5.08       8.70
H       4.47       7.42      22.81
H       5.28       8.32      24.12
H       4.38       9.20      22.88
H       4.79       2.75      15.09
H       3.90       3.71      13.91
H       4.75       4.53      15.25
H       2.51      12.64       3.70
H       1.86      13.59       5.06
H       1.40      13.97       3.39
H       1.34      21.98       9.15
H       0.73      22.52       7.58
H       0.21      23.34       9.08
H       0.28      13.72      22.52
H       5.96      12.56      21.63
H       0.35      13.71      20.73
H       1.91      22.30      17.31
H       2.93      23.46      16.41
H       1.98      22.29      15.52
H       4.90       9.98       4.77
H       5.78      11.21       3.83
H       4.84      10.00       2.99
H       4.75       2.00       9.67
H       3.83       0.80       8.80
H       4.71       2.05       7.89
C       1.91       1.65      10.91
C       1.94       1.59      14.54
C       4.96      22.42      14.54
C       4.96      22.43      10.85
C       1.06      10.35       1.77
C       0.61      10.40      23.49
C       3.95      13.60      23.51
C       4.38      13.57       1.84
C       0.65       9.40      22.39
C       1.78       9.41      21.56
C       1.95       8.47      20.56
C       0.98       7.46      20.38
C      -0.16       7.46      21.20
C      -0.36       8.42      22.20
C       1.18       6.44      19.43
C       1.39       5.55      18.61
C       1.58       4.53      17.65
C       2.73       4.52      16.83
C       2.92       3.56      15.83
C       1.90       2.59      15.64
C       0.77       2.59      16.47
C       0.60       3.53      17.48
C       4.39      14.55       2.97
C       5.47      15.45       3.00
C       5.56      16.44       3.96
C       4.56      16.54       4.95
C       3.50      15.61       4.94
C       3.39      14.61       3.96
C       4.62      17.55       5.93
C       4.70      18.45       6.75
C       4.77      19.47       7.73
C       5.82      20.41       7.74
C       5.94      21.40       8.72
C       4.94      21.45       9.72
C       3.86      20.55       9.69
C       3.77      19.56       8.73
C       4.04      14.52      22.34
C       2.97      15.42      22.12
C       3.05      16.41      21.16
C       4.21      16.51      20.36
C       5.25      15.57      20.54
C       5.19      14.57      21.51
C       4.37      17.55      19.42
C       4.54      18.46      18.62
C       4.69      19.50      17.68
C       3.66      20.45      17.50
C       3.71      21.44      16.53
C       4.86      21.49      15.70
C       5.93      20.60      15.92
C       5.85      19.61      16.89
C       1.09       9.36       2.88
C       2.21       8.52       2.95
C       2.31       7.54       3.93
C       1.29       7.39       4.88
C       0.17       8.26       4.82
C       0.04       9.24       3.84
C       1.39       6.41       5.89
C       1.51       5.55       6.75
C       1.63       4.57       7.77
C       2.75       3.72       7.83
C       2.90       2.75       8.83
C       1.87       2.63       9.79
C       0.74       3.46       9.72
C       0.61       4.43       8.74
C       5.04       8.33      23.05
C       4.16       3.64      14.98
C       2.23      13.65       4.03
C       0.45      22.37       8.63
C      -0.31      13.59      21.60
C       2.57      22.42      16.44
C       5.49      10.15       3.86
C       4.11       1.86       8.79
O       0.78       1.25      11.36
O       3.07       1.20      14.10
O       3.86      22.76      14.00
O       6.09      22.75      11.35
O       6.12      22.76      14.12
O       3.82      22.84      11.26
O       3.05       1.31      11.37
O       0.81       1.20      14.10
O       5.26       0.80      12.71
O       1.65      23.19      12.66
O      -0.07      10.68       1.29
O       1.73      10.78      23.95
O       2.79      13.25      23.91
O       5.51      13.15       1.43
O       5.05      13.27      24.05
O       3.25      13.25       1.34
O       2.19      10.77       1.35
O      -0.53      10.80      23.91
O       3.93      11.17      25.31
O       1.04      12.83       0.02
