198

Mg       3.48      21.79      11.83
Mg      -0.16      -1.05      24.03
Mg      -1.05      20.10      11.13
Mg       4.37       0.61      24.82
Mg       1.22      20.33      12.95
Mg       2.10       0.46      22.99
H      -2.36       3.10      34.50
H       3.25       3.04      32.33
H       0.69      23.89       0.36
H       1.83      23.89       2.56
H       0.14      17.47       3.55
H      -1.07      17.41       1.39
H       0.85      20.25       7.36
H      -1.16      21.46       7.88
H       4.65      21.25       5.60
H       2.54      -3.33      35.60
H       1.39      -3.31      33.41
H       2.47       0.32      28.57
H      -2.32      -0.86      28.01
H      -1.34      -0.70      30.30
H       2.17       7.61      15.99
H       0.98       5.76      17.12
H       2.97       9.11      15.05
H       4.10      11.01      13.95
H       2.40      15.08      19.01
H       1.20      13.24      20.14
H       3.12      16.99      14.70
H       1.10      16.84      13.40
H       0.11      14.97      14.71
H       0.27      11.77      21.01
H      -0.88       9.86      22.09
H       0.20       3.86      21.37
H       2.21       3.96      22.66
H       3.19       5.86      21.39
H      -0.09     -10.68      21.34
H      -1.28      -8.77      22.37
H      -1.56      29.23      20.51
H      -0.43      27.32      19.41
H      -2.14      29.67      13.36
H       3.46      31.56      14.39
H      -1.42      24.98      13.85
H       3.37      23.93      14.64
H       2.37      26.00      15.60
H       4.81      -8.41      15.23
H       3.66      -6.52      16.33
H       4.74      -4.15      21.90
H      -0.05      -3.08      21.16
H       0.93      -5.14      20.15
C       1.22      -1.34      31.65
C       1.86       1.05      31.28
C       2.57       1.04      32.58
C       2.57      -0.12      33.40
C       3.24      -0.10      34.66
C       3.23      -1.28      35.47
C      -0.60      19.45       0.84
C       0.06      20.65       1.26
C       0.06      21.83       0.46
C      -2.88       1.09      35.08
C      -2.89       2.19      34.22
C       3.25       2.17      32.99
C       0.69      22.98       0.95
C       1.34      22.99       2.18
C       1.38      21.85       2.97
C       0.74      20.66       2.52
C       0.77      19.50       3.33
C       0.11      18.35       2.91
C      -0.56      18.33       1.68
C       1.48      19.49       4.63
C       2.06      21.90       4.28
C       2.68      20.76       6.34
C       1.90      20.53       7.46
C       2.44      20.64       8.75
C       3.81      21.01       8.92
C       4.59      21.19       7.75
C       4.04      21.07       6.48
C       1.52      20.39       9.88
C       2.56      -2.41      35.00
C       1.90      -2.42      33.77
C       1.90      -1.29      32.97
C       0.64      -0.20      29.58
C       1.42       0.05      28.46
C       0.88      -0.03      27.17
C      -0.49      -0.39      26.99
C      -1.27      -0.60      28.15
C      -0.72      -0.51      29.42
C       1.80       0.25      26.05
C      -1.06       7.36      21.26
C      -0.41       5.84      19.37
C       0.30       6.98      18.74
C       0.30       8.26      19.33
C       0.97       9.35      18.69
C       0.96      10.64      19.30
C       1.66      11.75      18.65
C       2.32      11.52      17.40
C       2.32      10.23      16.78
C       1.65       9.11      17.45
C       1.64       7.82      16.92
C       0.98       6.76      17.55
C       2.97      10.08      15.55
C       3.61      11.14      14.92
C       3.64      12.40      15.51
C       3.00      12.60      16.76
C       3.03      13.88      17.36
C       2.38      14.09      18.57
C       1.70      13.04      19.20
C       3.75      15.01      16.73
C       4.33      13.50      14.81
C      -1.86      15.86      14.77
C       4.17      16.94      14.41
C      -2.10      18.00      13.66
C      -0.72      17.96      13.27
C       0.05      16.86      13.69
C      -0.50      15.82      14.43
C       3.79      19.11      13.32
C       0.29      10.80      20.52
C      -0.37       9.73      21.14
C      -0.37       8.47      20.56
C      -1.63       4.99      21.31
C      -0.85       3.90      21.65
C      -1.38       2.82      22.37
C       4.04       2.84      22.77
C       3.26       3.95      22.37
C       3.81       5.01      21.66
C      -0.47       1.70      22.68
C       3.48      -5.99      18.92
C       4.13      -6.87      21.18
C       4.84      -7.98      20.51
C       4.84      -8.11      19.10
C       5.51      -9.21      18.48
C       5.50      -9.33      17.06
C      -2.88      31.02      16.43
C      -2.21      30.06      17.25
C      -2.21      30.17      18.68
C      -0.61     -10.17      19.31
C      -0.62      -9.98      20.69
C      -1.28      -8.91      21.29
C      -1.56      29.18      19.42
C      -0.92      28.10      18.82
C      -0.89      27.98      17.43
C      -1.54      28.96      16.63
C      -1.51      28.84      15.22
C      -2.17      29.78      14.44
C      -2.84      30.85      15.04
C      -0.80      27.72      14.56
C      -0.21      26.82      16.82
C       0.40      25.61      14.80
C      -0.37      24.75      14.04
C       0.17      23.58      13.50
C       1.54      23.25      13.73
C       2.32      24.17      14.47
C       1.76      25.33      15.00
C      -0.74      22.72      12.71
C       4.83      -8.35      16.31
C       4.17      -7.28      16.92
C       4.17      -7.15      18.31
C       2.91      -4.76      20.94
C       3.69      -3.92      21.71
C       3.15      -2.76      22.29
C       1.78      -2.43      22.08
C       1.00      -3.33      21.31
C       1.55      -4.47      20.75
C       4.07      -1.93      23.11
N       1.24      -0.15      30.88
N       2.07      20.70       5.03
N      -1.03       6.10      20.62
N       4.34      14.75      15.47
N       3.51      -5.92      20.33
N      -0.20      26.77      15.41
O       0.35      19.95       9.69
O       1.94      20.66      11.08
O       4.39      21.19      10.11
O       2.97       0.69      26.26
O       1.38       0.03      24.84
O      -1.07      -0.53      25.78
O       0.66      -2.35      31.24
O       1.80       2.06      30.57
O       1.56      18.48       5.33
O       2.60      22.92       4.71
O       2.61      19.16      13.80
O       4.21      20.01      12.49
O      -0.15      18.91      12.51
O       0.71       1.67      22.20
O      -0.88       0.77      23.48
O       3.46       1.87      23.49
O      -1.62       7.51      22.34
O      -0.46       4.73      18.86
O       3.83      16.12      17.25
O      -1.94      13.36      13.71
O      -1.92      23.11      12.42
O      -0.33      21.55      12.35
O       2.12      22.13      13.29
O      -1.56      -2.34      23.38
O       3.65      -0.78      23.52
O       1.20      -1.32      22.56
O       2.92      -5.13      18.25
O       4.08      -6.75      22.40
O      -0.73      27.62      13.34
O       0.33      25.94      17.49
