150

Al       5.96       9.02      12.81
Al       2.63       9.04      12.79
Al       2.18      -4.94      25.60
Al       5.51      22.99       0.00
H       6.49      12.56      21.29
H       3.16       5.50       4.31
H       6.65      11.21      19.40
H       3.31       6.85       6.21
H       3.00      12.98      18.30
H       6.33       5.08       7.31
H       2.35      11.67      19.29
H       5.68       6.38       6.31
H       2.33      13.15      21.11
H       5.67       4.91       4.50
H       2.82      14.49      20.08
H       6.16       3.56       5.53
H       1.63      14.55      17.31
H       4.96       3.50       8.29
H       6.00      15.41      19.02
H       2.66       2.64       6.59
H       5.44      12.19      18.59
H       2.10       5.86       7.01
H       5.31      13.58      20.47
H       1.97       4.47       5.13
H       0.99      16.01      18.98
H       4.32       2.04       6.62
H       2.70      20.14       2.77
H       6.03      -2.09      22.83
H       2.78      18.30       4.48
H       6.12      -0.24      21.12
H       5.16      18.07       4.44
H       1.82      -0.02      21.17
H       5.09      19.93       2.74
H       1.75      -1.87      22.87
H       2.98      13.98       8.38
H       6.32       4.08      17.22
H       3.05      12.12      10.08
H       6.39       5.94      15.52
H       5.44      11.90      10.03
H       2.11       6.16      15.57
H       5.36      13.74       8.33
H       2.02       4.31      17.28
H       4.69      14.28      17.81
H       5.03      12.98      16.62
H       4.67      14.65      14.75
H       3.22      14.41      15.75
H       4.21      15.88      15.96
H       1.35       3.77       7.80
H       1.70       5.07       8.98
H       1.33       3.41      10.85
H       6.55       3.64       9.86
H       0.88       2.18       9.65
H       4.30      10.66      13.41
H       0.97       7.40      12.19
H       3.83      16.44      24.96
H       0.50       1.61       0.64
C       4.29       7.23      14.42
C       0.95      10.83      11.18
C       4.30       7.64      10.81
C       0.97      10.42      14.79
C       6.40      12.24      19.12
C       3.06       5.81       6.49
C       2.17      12.71      18.96
C       5.51       5.35       6.64
C       2.10      13.67      20.17
C       5.43       4.38       5.43
C       0.53      15.85      22.44
C       3.86       2.21       3.17
C       0.84      12.75      18.16
C       4.18       5.31       7.44
C       6.31      13.14      20.37
C       2.97       4.92       5.23
C       0.68      14.28      20.28
C       4.01       3.77       5.32
C       0.38      15.10      19.00
C       3.71       2.96       6.60
C       0.66      14.25      17.74
C       3.99       3.81       7.87
C       0.59      15.14      21.45
C       3.92       2.92       4.15
C       0.92      11.91      16.98
C       4.26       6.14       8.62
C       0.96      11.22      15.98
C       4.30       6.83       9.62
C       1.79      19.68       3.15
C       5.12      -1.62      22.45
C       1.83      18.66       4.09
C       5.17      -0.60      21.51
C       0.64      18.07       4.55
C       3.98      -0.02      21.05
C       6.07      18.54       4.07
C       2.74      -0.48      21.54
C       6.03      19.56       3.13
C       2.70      -1.50      22.48
C       0.55      20.13       2.66
C       3.89      -2.08      22.95
C       0.78      15.06       7.27
C       4.12       3.00      18.34
C       0.69      16.98       5.54
C       4.03       1.08      20.07
C       2.07      13.51       8.75
C       5.40       4.54      16.86
C       2.11      12.49       9.69
C       5.44       5.57      15.92
C       0.92      11.91      10.15
C       4.25       6.15      15.45
C       6.35      12.36       9.66
C       3.02       5.69      15.95
C       6.31      13.38       8.72
C       2.97       4.67      16.89
C       0.83      13.97       8.26
C       4.17       4.09      17.35
C       3.85       1.39       1.98
C       0.51      16.67      23.62
C       3.86      -3.15      23.98
C       0.52      21.21       1.62
C       5.08      14.07      16.79
C       4.24      14.80      15.75
C       1.74       3.98       8.81
C       0.91       3.25       9.85
N       6.19      16.42       5.93
N       2.86       1.63      19.67
N       6.24      15.45       6.81
N       2.90       2.61      18.79
N       1.96      15.61       6.86
N       5.29       2.45      18.74
N       1.91      16.58       5.98
N       5.24       1.47      19.62
O       3.16       7.97      11.28
O       6.50      10.08      14.32
O       5.43       7.62      14.03
O       2.10      10.43      11.58
O       5.44       7.94      11.31
O       2.10      10.12      14.30
O       6.50      10.41      11.60
O       3.16       7.65      14.00
O       4.30       9.83      12.90
O       0.97       8.22      12.70
O       4.98      -3.58      24.40
O       1.65      21.63       1.21
O       2.71       1.08       1.50
O       6.04      16.97      24.10
O       2.71      -3.54      24.38
O       6.05      21.60       1.22
O       1.65      17.00      24.09
O       4.98       1.05       1.51
O       3.84      17.25      25.50
O       0.51       0.81       0.11
O       6.43      14.52      16.67
O       3.09       3.53       8.93
