228

Zn      23.17      18.72      16.99
Zn      12.99       1.92      14.28
Zn      19.95      18.62      16.86
Zn      12.87       3.80      16.88
Zn      19.96       8.26      23.67
Zn      23.18       8.35      23.87
Zn      21.45       7.18      26.30
Zn      21.64       5.53      23.57
Zn      12.83      14.09      10.10
Zn      12.99      12.35       7.42
Zn      11.36      15.10       7.46
Zn      14.58      15.16       7.64
Zn      22.33       7.80       0.59
Zn      23.82      10.64       0.70
Zn       5.93       7.92       0.73
Zn      10.66      12.74      30.53
H      19.27       3.51      20.87
H      16.75       6.96      21.32
H      17.57       2.50      19.33
H      17.65      16.95       9.84
H      15.19      15.63      13.11
H      19.21      18.03      11.49
H      23.72      12.05      21.37
H      12.78      10.64      12.93
H       9.77      15.58      12.99
H       5.24       3.42      21.31
H      27.74      11.23      27.56
H      25.50       9.91      30.99
H      26.01      10.20      26.07
H      13.79      11.34      27.66
H      30.05      18.51      31.10
H       9.00       9.21       3.29
H      26.28      12.83       3.17
H      10.61      10.33       4.86
H      20.72      12.75       3.15
H      21.84       4.11       3.04
C      24.20      18.21      14.31
C      19.12      18.05      14.11
C      21.57      16.66      18.29
C      10.32       3.34      18.23
C      15.32       3.50      18.44
C      12.90       4.83      14.17
C      21.62      10.34      22.36
C      23.82       8.89      26.68
C      18.86       8.54      26.35
C      21.63       4.29      26.24
C      19.12       5.93      22.09
C      24.30       6.01      22.43
C      12.84      11.15      10.11
C      10.55      12.74       5.89
C      10.29      15.57      10.17
C      12.96      17.16       6.19
C      15.38      15.57      10.43
C      15.58      12.90       6.13
C      21.23      10.16       2.00
C       6.75      10.32       2.22
C       4.33       5.80       2.05
C      13.27      11.38      30.48
C      27.75      11.21      30.28
C      30.15      15.70      30.47
C      16.23       4.16      19.43
C      18.12       5.31      21.17
C      15.99       5.43      20.01
C      18.35       4.04      20.62
C      16.93       5.99      20.88
C      17.41       3.48      19.77
C      18.10      17.41      13.22
C      16.33      16.21      11.38
C      16.95      16.73      13.67
C      17.46      16.89      10.91
C      16.08      16.14      12.75
C      18.33      17.49      11.83
C      20.45      14.57      19.42
C      22.69      12.31      21.12
C      21.52      15.36      19.00
C      21.61      11.56      21.54
C      22.26      13.42      20.36
C      20.86      13.48      20.22
C      12.86       6.18      11.92
C      12.82       9.78      12.26
C      12.82       6.03      13.31
C      12.85       9.90      10.89
C      12.84       8.42      12.64
C      12.89       7.54      11.53
C      25.51      17.83      12.07
C      28.64      16.05      12.34
C      25.33      17.79      13.45
C      28.78      16.11      10.97
C      27.43      16.67      12.74
C      26.69      17.18      11.65
C       9.04       5.22      19.54
C       5.96       4.21      21.13
C       9.22       3.94      19.01
C       5.81       5.50      21.63
C       7.16       4.12      20.39
C       7.89       5.32      20.34
C      24.78       9.48      27.67
C      26.72      10.62      29.37
C      24.64       9.41      29.08
C      26.87      10.72      27.98
C      25.61       9.97      29.91
C      25.91      10.15      27.15
C      17.68       9.14      28.61
C      14.52      10.87      28.31
C      17.84       9.15      27.23
C      14.38      10.83      29.69
C      15.72      10.24      27.93
C      16.46       9.73      29.02
C      30.38      19.33      26.62
C      30.12      18.23      30.05
C      30.32      20.66      27.02
C      30.17      16.91      29.63
C      30.17      19.10      28.94
C      30.27      18.43      27.71
C       9.55      12.19       4.92
C       7.73      10.96       3.15
C       8.43      12.90       4.42
C       8.85      10.24       3.62
C       7.54      12.28       3.55
C       9.73      10.86       4.49
C      16.75      11.08       4.66
C      19.97      11.98       3.29
C      16.61      12.35       5.21
C      20.10      10.70       2.78
C      18.75      12.10       3.99
C      17.99      10.92       3.99
C       5.49       1.46       4.84
C       3.26       3.83       3.27
C       4.41       0.71       5.30
C       4.36       4.57       2.85
C       3.69       2.71       4.02
C       5.09       2.62       4.14
S      23.04      14.72      19.55
S      20.07      12.19      21.02
S      12.79       7.55      14.13
S      12.92       8.38      10.04
S      26.65      16.98      14.24
S      27.46      16.90      10.15
S       7.94       2.88      19.48
S       7.12       6.58      21.22
S      16.52       9.93      26.43
S      15.68      10.02      30.52
S      30.17      20.81      28.73
S      30.27      16.73      27.89
S      17.96      13.36       4.86
S      18.76       9.64       3.15
S       2.90       1.41       4.82
S       5.89       3.92       3.36
N      19.04      14.72      19.06
N      12.77       5.13      10.91
N      24.66      18.53      11.11
N       9.85       6.40      19.26
N      18.63       8.68      29.61
N      30.63      18.82      25.28
N      15.77      10.00       4.64
N       6.91       1.12       4.95
Cl      14.54       6.33      19.76
Cl      16.51      16.59      15.34
Cl      23.32       8.64      29.88
Cl       8.10      14.55       4.79
O      21.56      19.56      16.25
O      24.49      18.38      15.55
O      19.92      18.87      13.55
O      20.51      17.36      18.26
O      23.07      18.33      13.76
O      22.71      16.96      17.80
O      19.14      17.71      15.34
O      10.03       2.23      17.65
O      14.57       4.25      17.74
O      11.45       3.92      18.24
O      15.40       2.23      18.36
O      13.35       3.76      13.68
O      12.53       5.02      15.39
O      21.56       7.34      24.34
O      20.48       9.80      22.57
O      24.20       8.91      25.45
O      19.59       7.61      26.82
O      22.75       9.94      22.79
O      18.89       9.00      25.15
O      22.72       8.43      27.11
O      21.86       5.36      26.91
O      20.19       5.26      22.28
O      21.31       4.22      25.01
O      18.84       7.06      22.59
O      24.38       7.24      22.79
O      23.35       5.19      22.68
O      12.95      14.18       8.15
O      12.87      12.24      10.77
O      11.63      12.08       6.03
O      10.24      15.82       8.91
O      12.80      11.01       8.84
O      11.19      14.92      10.80
O      10.24      13.80       6.52
O      11.84      16.54       6.20
O      15.69      15.60       9.19
O      13.99      16.90       6.89
O      14.33      15.05      10.93
O      14.81      12.07       6.72
O      15.60      14.17       6.28
O       4.32       8.80       0.02
O      21.14       8.93       1.66
O       5.75      11.03       1.86
O       5.47       6.34       1.81
O      22.19      10.96       1.74
O      22.79       6.21       1.66
O       6.98       9.11       1.88
O      13.36      11.23      31.75
O      28.74      11.79      29.73
O      12.32      11.94      29.84
O      27.54      11.09      31.54
O      30.10      15.88      31.73
O      30.19      14.59      29.85
O      18.24      14.23      19.88
O      18.74      15.26      17.99
O      13.26       5.42       9.80
O      12.18       4.08      11.19
O      24.68      18.07       9.95
O      15.44       1.92      11.47
O       9.82       7.28      20.15
O      10.46       6.49      18.19
O      18.13       8.34      30.71
O      19.84       8.69      29.35
O      30.18      17.68      25.04
O      31.29      19.50      24.49
O      16.24       8.85       4.55
O      14.56      10.28       4.64
O       7.69       2.09       4.95
O      15.85      17.56       4.96
