202

Sm      14.82       8.56       3.97
Sm       7.41       4.28       3.97
Sm       7.41       4.28      11.90
Sm      14.82       8.56      11.90
Zn      14.82      12.84      15.87
Zn      11.12       6.42       0.00
Zn       3.71       6.42       0.00
Zn      11.12       6.42       7.93
Zn       7.41      -0.00       7.93
Zn       3.71       6.42       7.93
H      15.53      10.54      15.07
H      12.15      11.82       3.69
H      11.50      10.69       2.46
H      12.76       8.18      15.07
H      13.34       4.62       3.69
H      14.64       4.62       2.46
H      16.18       6.96      15.07
H      18.98       9.24       3.69
H      18.33      10.37       2.46
H       6.71       2.30      15.07
H      10.08       1.02       3.69
H      10.73       2.15       2.46
H       9.48       4.66      15.07
H       8.90       8.22       3.69
H       7.60       8.22       2.46
H       6.05       5.88      15.07
H       3.26       3.60       3.69
H       3.91       2.47       2.46
H       8.77       5.88       8.74
H      11.57       3.60       4.24
H      10.92       2.47       5.48
H       8.12       2.30       8.74
H       4.74       1.02       4.24
H       4.09       2.15       5.48
H       5.35       4.66       8.74
H       5.93       8.22       4.24
H       7.23       8.22       5.48
H      13.47       6.96       8.74
H      10.67       9.24       4.24
H      11.32      10.37       5.48
H      14.12      10.54       8.74
H      17.49      11.82       4.24
H      18.15      10.69       5.48
H      16.89       8.18       8.74
H      16.31       4.62       4.24
H      15.01       4.62       5.48
H       6.71       2.30       0.80
H      10.08       1.02      12.17
H      10.73       2.15      13.41
H       9.48       4.66       0.80
H       8.90       8.22      12.17
H       7.60       8.22      13.41
H       6.05       5.88       0.80
H       3.26       3.60      12.17
H       3.91       2.47      13.41
H      15.53      10.54       0.80
H      12.15      11.82      12.17
H      11.50      10.69      13.41
H      12.76       8.18       0.80
H      13.34       4.62      12.17
H      14.64       4.62      13.41
H      16.18       6.96       0.80
H      18.98       9.24      12.17
H      18.33      10.37      13.41
H      13.47       6.96       7.13
H      10.67       9.24      11.63
H      11.32      10.37      10.39
H      14.12      10.54       7.13
H      17.49      11.82      11.63
H      18.15      10.69      10.39
H      16.89       8.18       7.13
H      16.31       4.62      11.63
H      15.01       4.62      10.39
H       8.77       5.88       7.13
H      11.57       3.60      11.63
H      10.92       2.47      10.39
H       8.12       2.30       7.13
H       4.74       1.02      11.63
H       4.09       2.15      10.39
H       5.35       4.66       7.13
H       5.93       8.22      11.63
H       7.23       8.22      10.39
C      13.58      11.16       2.22
C      12.37      10.91       3.10
C      13.20       6.18       2.22
C      14.01       5.26       3.10
C      17.70       8.34       2.22
C      18.09       9.51       3.10
C       8.66       1.68       2.22
C       9.86       1.93       3.10
C       9.04       6.66       2.22
C       8.22       7.58       3.10
C       4.54       4.50       2.22
C       4.15       3.33       3.10
C      10.29       4.50       5.72
C      10.67       3.33       4.83
C       6.17       1.68       5.72
C       4.96       1.93       4.83
C       5.78       6.66       5.72
C       6.60       7.58       4.83
C      11.95       8.34       5.72
C      11.56       9.51       4.83
C      16.07      11.16       5.72
C      17.28      10.91       4.83
C      16.45       6.18       5.72
C      15.64       5.26       4.83
C       8.66       1.68      13.65
C       9.86       1.93      12.77
C       9.04       6.66      13.65
C       8.22       7.58      12.77
C       4.54       4.50      13.65
C       4.15       3.33      12.77
C      13.58      11.16      13.65
C      12.37      10.91      12.77
C      13.20       6.18      13.65
C      14.01       5.26      12.77
C      17.70       8.34      13.65
C      18.09       9.51      12.77
C      11.95       8.34      10.15
C      11.56       9.51      11.04
C      16.07      11.16      10.15
C      17.28      10.91      11.04
C      16.45       6.18      10.15
C      15.64       5.26      11.04
C      10.29       4.50      10.15
C      10.67       3.33      11.04
C       6.17       1.68      10.15
C       4.96       1.93      11.04
C       5.78       6.66      10.15
C       6.60       7.58      11.04
O      14.56      10.33       2.30
O      13.49      12.16       1.47
O      13.43       7.44       2.30
O      12.37       5.60       1.47
O      16.49       7.91       2.30
O      18.61       7.91       1.47
O       7.68       2.51       2.30
O       8.74       0.68       1.47
O       8.81       5.40       2.30
O       9.87       7.24       1.47
O       5.75       4.93       2.30
O       3.62       4.93       1.47
O       9.08       4.93       5.64
O      11.20       4.93       6.46
O       7.14       2.51       5.64
O       6.08       0.68       6.46
O       6.01       5.40       5.64
O       4.96       7.24       6.46
O      13.16       7.91       5.64
O      11.04       7.91       6.46
O      15.09      10.33       5.64
O      16.16      12.16       6.46
O      16.22       7.44       5.64
O      17.28       5.60       6.46
O       7.68       2.51      13.57
O       8.74       0.68      14.39
O       8.81       5.40      13.57
O       9.87       7.24      14.39
O       5.75       4.93      13.57
O       3.62       4.93      14.39
O      14.56      10.33      13.57
O      13.49      12.16      14.39
O      13.43       7.44      13.57
O      12.37       5.60      14.39
O      16.49       7.91      13.57
O      18.61       7.91      14.39
O      13.16       7.91      10.23
O      11.04       7.91       9.41
O      15.09      10.33      10.23
O      16.16      12.16       9.41
O      16.22       7.44      10.23
O      17.28       5.60       9.41
O       9.08       4.93      10.23
O      11.20       4.93       9.41
O       7.14       2.51      10.23
O       6.08       0.68       9.41
O       6.01       5.40      10.23
O       4.96       7.24       9.41
O      12.65       9.82       3.97
O      14.82       6.04       3.97
O      17.00       9.82       3.97
O       9.59       3.02       3.97
O       7.41       6.79       3.97
O       5.23       3.02       3.97
O       9.59       3.02      11.90
O       7.41       6.79      11.90
O       5.23       3.02      11.90
O      12.65       9.82      11.90
O      14.82       6.04      11.90
O      17.00       9.82      11.90
O      15.92      10.97      15.87
O      12.19       8.30       0.00
O      16.36       6.41       0.00
O       6.32       1.87      15.87
O      10.05       4.54      15.87
O       5.87       6.43       0.00
O       8.95       6.43       7.93
O       8.51       1.87       7.93
O       4.78       4.54       7.93
O      13.29       6.41       7.93
O      13.73      10.97       7.93
O      17.46       8.30       7.93
