183

Cu       4.19       4.81       3.31
Cu       3.69       1.98       4.50
Cu       2.31       4.31       5.96
Cu      17.71       6.37      20.67
Cu      17.63       3.75      18.68
Cu      19.92       5.91      18.60
Cu       6.91      17.17      20.44
Cu       6.13      19.29      18.19
Cu       4.12      16.98      19.20
Cu      16.19      18.60       3.39
Cu      15.97      20.26       5.91
Cu      18.46      18.26       5.71
Si      22.08      22.14      12.49
Si      10.90       0.83      22.83
Si       0.58      11.98       1.14
H       6.52       4.06       1.12
H       5.06       0.17       2.36
H       0.74       7.02       5.99
H       3.30       7.73       2.57
H       3.69      22.60       6.55
H       1.42       2.82       8.75
H      14.83       6.22      21.85
H      14.89       2.49      19.65
H       0.36       8.00      19.49
H      19.14       8.60      22.59
H      18.78       1.67      16.42
H      21.60       4.95      16.19
H       9.88      17.91      20.97
H       8.59      21.34      18.67
H       2.58      15.14      21.37
H       6.52      15.50      23.14
H       4.32      20.56      15.85
H       1.87      17.20      17.06
H      14.19      20.21       1.39
H      13.85      22.47       5.08
H      20.17      15.87       4.39
H      16.93      16.25       1.54
H      16.40      21.48       8.70
H      20.11      19.27       8.35
H       6.49      22.28      23.85
H       8.75      21.71      22.43
H      11.84       5.76      21.83
H       9.91       4.02      22.70
H      12.62      19.32      20.80
H      13.53      21.39      22.36
H      12.29       1.50       3.64
H      11.03       2.60       1.49
H      21.41       9.60       5.57
H      20.78      11.77       4.02
H      17.82      14.17       0.20
H      19.90      12.34      23.33
H       2.05       9.60      20.77
H       2.90      11.34      22.70
H       5.16      14.27       1.54
H       3.34      12.72       2.87
H       3.96      21.28       9.00
H       2.82      20.36      11.32
H      21.93      17.71      15.01
H      20.67      19.32      13.19
H      17.17      22.43      11.07
H      18.67       0.29      12.91
H       1.14       3.80      14.26
H       1.84       1.81      12.51
C       6.03       3.21       1.58
C       6.16       1.84       1.31
C       5.26       1.23       2.20
C       1.48       6.99       5.20
C       1.75       7.93       4.19
C       2.79       7.35       3.45
C       2.93       0.55       6.91
C       2.31       0.84       8.13
C       1.93       2.19       8.03
C      15.05       5.37      21.22
C      14.28       4.22      20.96
C      15.09       3.45      20.11
C      21.24       8.00      20.14
C      21.01       8.70      21.33
C      19.72       8.31      21.72
C      19.35       2.58      16.53
C      20.50       3.01      15.85
C      20.80       4.26      16.41
C       9.38      18.62      20.32
C       9.77      19.92      19.96
C       8.71      20.38      19.16
C       3.62      15.35      21.61
C       4.35      15.01      22.76
C       5.63      15.53      22.52
C       3.88      19.68      16.31
C       2.67      19.03      16.01
C       2.63      17.96      16.92
C      14.24      20.60       2.40
C      13.66      21.76       2.94
C      14.07      21.76       4.29
C      19.28      16.13       3.82
C      18.79      15.58       2.63
C      17.63      16.33       2.36
C      17.22      20.83       8.42
C      18.45      20.63       9.06
C      19.12      19.71       8.24
C       6.98       1.11       0.38
C       7.38      22.90      23.76
C       8.55      22.61      23.01
C       9.08       0.69      23.16
C      12.98       3.91      21.48
C      11.90       4.68      21.87
C      10.89       3.77      22.31
C      11.38       2.50      22.16
C      10.88      20.64      20.54
C      12.13      20.27      21.00
C      12.61      21.35      21.80
C      11.65      22.34      21.78
C      12.88      22.77       2.28
C      12.13       1.04       2.67
C      11.48       1.62       1.55
C      11.51       0.70       0.52
C       1.07       9.18       3.94
C      21.84       9.88       4.62
C      21.52      11.01       3.81
C       0.57      10.96       2.69
C      19.29      14.52       1.79
C      18.77      13.93       0.66
C      19.71      12.96       0.23
C      20.77      12.99       1.11
C      21.95       9.59      21.96
C       1.49       9.95      21.63
C       1.93      10.85      22.64
C       0.90      11.00      23.54
C       3.90      14.28      23.91
C       4.19      13.94       1.19
C       3.24      13.15       1.88
C       2.14      12.99       1.06
C       2.50      22.90       9.23
C       3.15      21.73       9.55
C       2.56      21.26      10.76
C       1.59      22.16      11.13
C       1.66      19.34      15.04
C       0.51      18.68      14.65
C      21.61      19.51      13.71
C       0.63      20.64      13.55
C      18.88      21.31      10.26
C      18.21      22.15      11.13
C      19.17      22.58      12.08
C      20.37      21.99      11.77
C      21.28       2.39      14.81
C       0.65       2.84      14.12
C       1.01       1.80      13.22
C      21.86       0.77      13.39
N       4.64       2.16       2.94
N       5.11       3.40       2.56
N       3.10       6.15       3.97
N       2.29       5.92       5.06
N       2.31       2.67       6.82
N       2.92       1.65       6.13
N      16.25       4.10      19.87
N      16.23       5.29      20.56
N      19.22       7.43      20.83
N      20.16       7.24      19.85
N      19.89       4.55      17.37
N      19.00       3.51      17.45
N       7.76      19.43      19.05
N       8.18      18.33      19.78
N       5.66      16.14      21.32
N       4.41      16.03      20.75
N       3.73      17.98      17.70
N       4.51      19.05      17.33
N      14.84      20.69       4.52
N      14.96      19.97       3.36
N      17.45      17.25       3.32
N      18.48      17.14       4.23
N      18.33      19.38       7.18
N      17.16      20.09       7.31
O       8.21       1.60       0.03
O      12.67       2.58      21.65
O      10.60      21.91      20.97
O      12.50      22.54       0.98
O       1.38       9.83       2.77
O      20.51      13.95       2.09
O      21.57      10.22      23.13
O       2.65      13.71      23.82
O       1.21       0.19      10.18
O       1.74      20.54      14.37
O      20.19      21.19      10.65
O      20.95       1.14      14.37
