172

Al       4.49      19.00      21.53
Al       2.39       6.39       7.18
Al       1.04      19.09      21.51
Al       5.84       6.30       7.17
H       2.32      10.79      12.28
H       4.50      14.61      16.44
H       4.58      14.64      26.67
H       2.40      10.66       2.00
H       5.80       1.92       2.07
H       1.06      23.49      26.61
H       1.09      23.49      16.43
H       5.81       1.90      12.26
H       5.27       8.78      10.09
H       1.58      16.60      18.59
H       1.62      16.53      24.36
H       5.31       8.93       4.34
H       1.83       3.89       4.27
H       5.03      21.48      24.46
H       5.05      21.51      18.62
H       1.84       3.90      10.10
H       5.64      12.95      12.21
H       1.15      12.42      16.50
H       1.01      12.27      26.45
H       6.02      13.12       2.24
H       2.23      25.13       2.15
H       4.61       0.27      26.54
H       4.65       0.27      16.50
H       2.24      25.13      12.21
H       2.81       8.48       9.61
H       4.03      16.92      19.10
H       4.08      16.93      23.98
H       2.86       8.41       4.71
H       6.28       4.23       4.73
H       0.59      21.16      23.95
H       0.60      21.18      19.09
H       6.28       4.21       9.59
H       4.06       9.97      11.47
H       2.76      15.40      17.21
H       2.83      15.33      25.74
H       4.14      10.14       2.96
H       0.64       2.70       2.88
H       6.22      22.69      25.84
H       6.25      22.70      17.23
H       0.65       2.70      11.48
H       2.68      17.25      21.52
H       4.20       8.14       7.18
H       6.13      20.84      21.53
H       0.75       4.55       7.15
C       2.82      20.65      19.71
C       4.06       4.75       8.99
C       4.07       4.75       5.35
C       2.81      20.63      23.35
C       6.28      17.44      23.33
C       0.63       7.95       5.37
C       0.60       7.93       9.00
C       6.26      17.46      19.70
C       1.63       9.45      10.75
C       5.21      15.95      17.96
C       5.27      15.95      25.10
C       1.69       9.39       3.58
C       5.10       3.26       3.60
C       1.76      22.14      25.09
C       1.79      22.15      17.96
C       5.11       3.24      10.73
C       1.45      10.34      11.80
C       5.37      15.05      16.91
C       5.45      15.06      26.16
C       1.53      10.28       2.52
C       4.93       2.36       2.55
C       1.93      23.04      26.13
C       1.96      23.05      16.91
C       4.94       2.34      11.79
C       0.18      10.70      12.25
C       6.64      14.69      16.45
C       6.72      14.67      26.57
C       0.27      10.71       2.11
C       3.66       1.99       2.10
C       3.20      23.40      26.60
C       3.23      23.41      16.46
C       3.67       1.99      12.25
C       5.95      10.13      11.61
C       0.87      15.25      17.08
C       0.95      15.20      25.90
C       6.03      10.23       2.79
C       2.52       2.55       2.74
C       4.33      22.84      25.97
C       4.36      22.85      17.09
C       2.53       2.55      11.62
C       6.13       9.23      10.57
C       0.71      16.15      18.11
C       0.76      16.10      24.86
C       6.19       9.32       3.83
C       2.70       3.45       3.78
C       4.17      21.93      24.93
C       4.19      21.95      18.14
C       2.70       3.45      10.58
C       0.50       8.88      10.12
C       6.34      16.52      18.58
C       6.39      16.49      24.44
C       0.55       8.89       4.25
C       3.97       3.82       4.23
C       2.90      21.57      24.47
C       2.91      21.59      18.59
C       3.98       3.81      10.11
C       6.17      12.83      13.16
C       0.62      12.55      15.55
C       0.59      12.47      27.43
C       6.44      12.93       1.25
C       2.76      25.26       1.20
C       4.08       0.14      27.49
C       4.13       0.14      15.55
C       2.77      25.26      13.15
C       6.08      13.82      14.12
C       0.72      11.55      14.58
C       0.67      11.48      28.42
C       6.36      13.91       0.27
C       2.68      24.26       0.24
C       4.17       1.14      28.45
C       4.22       1.13      14.58
C       2.68      24.27      14.12
C       6.76      13.70      15.35
C       0.04      11.68      13.35
C       0.16      11.69       1.01
C       6.86      13.69      27.67
C       3.31      24.39      27.69
C       3.53       1.01       1.00
C       3.55       1.01      13.35
C       3.35      24.39      15.36
Cl       5.15      15.23      13.74
Cl       1.64      10.14      14.97
Cl       1.41       9.98      28.00
Cl       5.63      15.42       0.69
Cl       1.76      22.84       0.63
Cl       5.08       2.56      28.06
Cl       5.15       2.55      14.96
Cl       1.76      22.85      13.74
O       1.63      20.31      22.90
O       5.25       5.08       5.79
O       5.24       5.06       8.54
O       1.63      20.33      20.15
O       5.08      17.78      20.15
O       1.79       7.63       8.55
O       1.81       7.61       5.80
O       5.09      17.76      22.90
O       3.91      20.21      20.20
O       2.97       5.20       8.53
O       2.98       5.18       5.85
O       3.90      20.18      22.88
O       0.46      17.88      22.84
O       6.44       7.52       5.85
O       6.42       7.48       8.52
O       0.45      17.91      20.17
O       2.75      18.22      21.51
O       4.13       7.17       7.18
O       6.21      19.87      21.53
O       0.67       5.52       7.17
O       2.90       9.14      10.36
O       3.94      16.26      18.36
O       3.99      16.28      24.74
O       2.96       9.04       3.95
O       6.37       3.57       3.98
O       0.49      21.83      24.69
O       0.51      21.84      18.35
O       6.38       3.55      10.34
O       4.70      10.47      12.04
O       2.12      14.90      16.64
O       2.19      14.82      26.30
O       4.79      10.64       2.41
O       1.27       2.21       2.31
O       5.58      23.18      26.40
O       5.61      23.19      16.67
O       1.28       2.21      12.05
