168

Zn      17.97      10.39      11.95
Zn       5.06      10.07       9.08
Zn       2.42       4.17       2.47
Zn      15.32       4.49       5.34
H      16.23      11.66      14.23
H      10.19       9.86       2.26
H      13.50       7.09       1.98
H      19.47       9.10      13.98
H      12.53       7.42       4.13
H       9.74       8.73       4.11
H       8.42       8.53       6.00
H      12.38       6.80       6.12
H       6.21      11.57       6.75
H       6.95      11.04       4.41
H       5.38       7.04       5.03
H       4.73       7.75       7.31
H       7.43       9.29       2.73
H       5.42       6.96       2.88
H       8.65       8.18       1.30
H       5.07       5.81       0.85
H      16.94       1.46      12.13
H       4.65       3.53       7.67
H       4.20       1.10       7.87
H      17.10       3.71      13.20
H      17.45       6.17      12.99
H       4.92       5.76       8.76
H      14.03      10.12       8.00
H      11.55      10.08       7.79
H      13.71      10.41      12.27
H       9.31      10.14       8.87
H       8.99      10.19      13.15
H      11.47      10.29      13.36
H       4.16       2.90       0.19
H      10.19       4.71      12.16
H       6.88       7.47      12.43
H       0.92       5.46       0.44
H       7.85       7.14      10.29
H      10.65       5.83      10.31
H      11.96       6.04       8.41
H       8.00       7.76       8.29
H      14.17       2.99       7.67
H      13.44       3.53      10.00
H      15.00       7.52       9.39
H      15.65       6.81       7.11
H      12.95       5.27      11.69
H      14.96       7.60      11.54
H      11.74       6.38      13.11
H      15.31       8.75      13.57
H       3.44      13.10       2.29
H      15.74      11.03       6.75
H      16.18      13.47       6.55
H       3.28      10.85       1.21
H       2.94       8.39       1.42
H      15.47       8.80       5.65
H       6.35       4.44       6.42
H       8.83       4.48       6.63
H       6.68       4.15       2.14
H      11.08       4.42       5.54
H      11.40       4.37       1.26
H       8.91       4.27       1.05
C      11.08       9.54       0.34
C      10.95       9.31       1.70
C      11.80       8.38       2.34
C      12.80       7.80       1.55
C      12.88       8.10       0.20
C      11.68       7.99       3.73
C      10.60       8.20       4.52
C       9.20       7.98       6.54
C      10.43       7.74       5.88
C      11.42       7.03       6.59
C       6.05      10.59       6.31
C       6.45      10.28       5.02
C       6.22       8.99       4.50
C       5.57       8.07       5.34
C       5.20       8.45       6.62
C       6.69       8.63       3.17
C       6.25       7.55       2.48
C       8.04       7.49       0.72
C       6.78       7.08       1.22
C       6.04       6.14       0.47
C      18.32      12.79      10.14
C      17.15       1.14      10.02
C      17.13       1.93      11.16
C      17.36       3.32      11.08
C       4.46       3.91       9.80
C       4.47       3.08       8.65
C       4.22       1.73       8.75
C      17.31       4.16      12.23
C      17.51       5.52      12.12
C      17.79       6.10      10.86
C       4.69       5.30       9.73
C      17.95       7.59      10.74
C      15.50      10.29      10.29
C      14.01      10.28      10.16
C      13.40      10.17       8.88
C      12.02      10.15       8.77
C      11.20      10.20       9.93
C      11.82      10.27      11.22
C      13.23      10.33      11.30
C       9.79      10.17       9.85
C       9.01      10.17      10.99
C       9.63      10.20      12.27
C      11.00      10.26      12.38
C       7.52      10.14      10.86
C       9.30       5.02      14.08
C       9.43       5.25      12.72
C       8.59       6.18      12.07
C       7.58       6.76      12.87
C       7.50       6.46      14.21
C       8.70       6.57      10.68
C       9.78       6.36       9.89
C      11.18       6.58       7.88
C       9.95       6.82       8.53
C       8.96       7.54       7.83
C      14.34       3.97       8.11
C      13.93       4.28       9.40
C      14.17       5.57       9.92
C      14.81       6.49       9.07
C      15.18       6.11       7.80
C      13.70       5.93      11.24
C      14.13       7.01      11.93
C      12.35       7.07      13.69
C      13.60       7.48      13.20
C      14.34       8.42      13.95
C       2.06       1.77       4.27
C       3.23      13.42       4.39
C       3.25      12.63       3.26
C       3.02      11.24       3.33
C      15.92      10.65       4.61
C      15.91      11.48       5.77
C      16.16      12.83       5.66
C       3.07      10.40       2.19
C       2.87       9.04       2.29
C       2.59       8.46       3.56
C      15.69       9.26       4.69
C       2.44       6.97       3.68
C       4.88       4.27       4.13
C       6.37       4.28       4.26
C       6.99       4.39       5.53
C       8.36       4.41       5.65
C       9.18       4.36       4.49
C       8.57       4.29       3.20
C       7.16       4.23       3.12
C      10.59       4.39       4.57
C      11.37       4.39       3.43
C      10.76       4.36       2.15
C       9.39       4.30       2.04
C      12.86       4.42       3.55
N      17.84      10.37      14.00
N       5.44       9.68       7.11
N       2.55       4.19       0.42
N      14.94       4.88       7.31
O      18.22      12.32      11.32
O       5.09      12.12       9.06
O      17.78       8.28      11.79
O       5.04       8.05       9.58
O      15.98      10.49      11.45
O      16.18      10.06       9.23
O       6.84      10.13      11.94
O       7.04      10.12       9.68
O       2.16       2.24       3.09
O      15.30       2.44       5.36
O       2.60       6.28       2.62
O      15.34       6.51       4.83
O       4.40       4.07       2.96
O       4.20       4.50       5.19
O      13.55       4.43       2.47
O      13.34       4.44       4.73
