120

Zn       3.91      10.60      16.66
Zn       1.14      10.56      15.84
Zn      -2.41      10.29      31.24
Zn       3.18      10.61       0.13
H      -2.39       0.42      28.92
H      -1.49       0.62      26.66
H       1.18       9.90      25.02
H       0.26       9.66      27.32
H       0.43       0.27      22.86
H       3.07       9.54      21.28
H       3.95       9.72      19.00
H       1.32       0.47      20.55
H       1.95       9.32       4.45
H       0.75       9.32       6.63
H       4.57       1.66       5.18
H       5.66       1.53       2.98
H      -0.28       1.66      10.80
H       3.54       9.28       9.31
H       2.35       9.22      11.49
H       5.03       1.46      13.01
H       0.27       7.66      17.94
H       0.33       2.67      17.95
H       4.40       3.95      15.70
H       4.38       6.45      15.71
H       1.19       7.43      29.92
H       1.32       2.44      29.97
H       0.01       3.94       0.25
H      -0.04       6.44       0.26
H       3.40       1.53      22.63
H       3.51       2.28      24.25
H       2.02       1.49      23.77
H      -0.41       8.69      24.14
H      -1.91       7.89      23.68
H      -1.77       8.66      25.29
H       3.11       9.95       6.98
H       3.24       0.81       6.41
H       3.10       0.49       8.15
H       1.21      10.17       8.99
H       1.02       1.04       9.49
H       1.18       0.67       7.77
C       2.47       8.07      16.57
C       0.16      10.57      18.28
C       2.52       2.28      16.58
C       3.02      10.64      13.75
C      -0.98       7.79      31.33
C       1.36      10.32      29.61
C      -0.90       2.00      31.32
C       1.25      10.73       2.21
C       2.03      10.40      28.29
C       3.37       0.08      28.09
C       3.89       0.22      26.80
C       3.12      -0.12      25.67
C       1.79      10.17      25.88
C       1.27      10.04      27.16
C       3.61       0.13      24.28
C      -2.00      10.05      23.63
C      -0.19      -0.02      22.01
C      -1.52      10.28      22.24
C       4.07       9.93      21.13
C       4.57      10.05      19.83
C      -0.50      10.52      19.61
C       0.31       0.10      20.72
C       0.71       0.03       3.58
C       1.12      10.00       4.62
C       0.45      10.02       5.85
C       5.79       0.11       6.09
C       5.39       0.95       5.03
C       6.01       0.90       3.80
C       5.05       0.12       7.37
C      -0.73       0.16       8.59
C       5.30       0.93      10.94
C       4.91       0.10       9.87
C       3.83       9.98      10.10
C       3.17       9.93      11.33
C       3.62      -0.05      12.38
C       4.68       0.84      12.18
C       2.48       6.59      16.68
C       1.39       5.89      17.29
C       3.55       5.89      16.14
C       0.33       6.57      17.95
C      -0.65       5.86      18.60
C       2.50       3.78      16.68
C       3.56       4.49      16.14
C       1.40       4.45      17.29
C       0.36       3.75      17.95
C      -0.63       4.45      18.60
C      -0.96       6.30      31.21
C       0.14       5.63      30.60
C      -2.01       5.58      31.75
C       1.18       6.34      29.93
C       2.18       5.66      29.28
C      -0.90       3.49      31.22
C      -1.98       4.18      31.75
C       0.18       4.20      30.61
C       1.25       3.53      29.96
C       2.21       4.25      29.30
C       3.11       1.42      23.69
C      -1.50       8.76      24.23
C       3.56       0.15       7.22
C       0.75       0.33       8.71
O       3.53       8.70      16.93
O       1.41       8.60      16.10
O      -0.53      10.55      17.15
O       1.45      -0.18      18.22
O       1.52       1.74      16.01
O       3.54       1.69      17.05
O       3.92      -0.06      14.69
O       1.76      10.48      13.91
O      -2.04       8.40      30.95
O       0.06       8.33      31.83
O       2.04      10.35      30.74
O       0.11      10.26      29.66
O       0.12       1.47      31.86
O      -1.92       1.39      30.87
O       0.41       0.02       1.28
O       2.50      10.57       2.05
F      -1.65       6.49      19.25
F      -1.62       3.79      19.26
F       3.15       6.32      28.62
F       3.22       3.62      28.65
