106

Zn       7.01      13.30       1.49
Zn       1.77       1.26       0.07
Zn      14.92       1.83       1.55
Zn      22.43       3.85      14.99
Zn      14.68      11.29       8.36
Zn      13.46       8.55       7.50
Zn      14.68       8.89      10.45
Zn      16.70       8.85       7.94
H      12.08      13.52       1.81
H      11.31      11.90       1.67
H      11.59      14.03       6.44
H      11.81      10.63       3.76
H      21.01      15.22       5.71
H      21.72      13.57       5.71
H      16.54      14.02       5.21
H      20.08      11.83       6.41
H      27.44      14.30      14.79
H      12.67      13.39      15.85
H      14.91      14.72      11.30
H      13.21      11.70      13.91
H      17.57       5.72       0.74
H      18.58       5.21       2.11
H      13.80       7.01       3.29
H      17.87       6.01       4.41
H       9.31       2.88      11.73
H      10.82       3.10      12.68
H       9.71       6.31       8.78
H      12.10       5.40      12.28
H      20.24       8.22      15.27
H      18.85       7.14      15.45
H      20.56       7.93      10.57
H      17.41       7.26      13.48
C       9.93      13.54       1.70
C      11.24      12.89       2.15
C      11.57      13.36       5.59
C      11.86      11.97       5.58
C      11.68      11.59       4.25
C      12.44      11.13       6.63
C      21.40      14.41       3.75
C      21.00      14.24       5.22
C      17.55      13.67       5.39
C      17.95      12.49       6.06
C      19.34      12.51       6.01
C      17.10      11.53       6.77
C      13.07      15.51      15.70
C      12.59      14.19      15.10
C      14.43      14.17      12.11
C      14.24      12.77      12.21
C      13.57      12.59      13.43
C      14.55      11.74      11.21
C      17.16       3.75       1.44
C      17.56       5.20       1.71
C      14.83       6.68       3.32
C      15.73       6.71       4.42
C      16.91       6.19       3.93
C      15.48       7.27       5.76
C       9.09       4.05      13.53
C       9.90       3.58      12.31
C      10.11       5.91       9.70
C      11.31       6.29      10.36
C      11.36       5.47      11.49
C      12.31       7.26       9.91
C      20.73       6.16      15.43
C      19.81       7.26      14.93
C      19.97       7.73      11.46
C      18.55       7.66      11.58
C      18.33       7.39      12.93
C      17.50       7.97      10.61
N      11.32      12.71       3.58
N      11.24      13.81       4.38
N      19.68      13.66       5.37
N      18.59      14.38       4.97
N      13.40      13.83      13.95
N      13.92      14.81      13.16
N      16.68       5.88       2.63
N      15.42       6.19       2.23
N      10.27       4.67      11.43
N       9.48       4.93      10.35
N      19.55       7.31      13.51
N      20.57       7.54      12.63
O      15.89       0.52       0.46
O      10.05      14.56       0.95
O       8.86      12.96       2.08
O      12.51       9.87       6.39
O      12.88      11.72       7.68
O      14.36       1.14       3.29
O      21.82      13.38       3.15
O      17.62      10.44       7.17
O      15.88      11.90       6.94
O      28.44      16.56      15.22
O       6.43      11.76       0.39
O      14.35      10.52      11.53
O      14.97      12.18      10.08
O      16.15       3.29       2.06
O       1.99       3.14       0.60
O      16.51       7.53       6.48
O      14.26       7.45       6.08
O       7.88       3.69      13.57
O       9.73       4.72      14.40
O      13.21       7.61      10.74
O      12.19       7.65       8.69
O      21.10       5.25      14.64
O      13.52       2.63       0.43
O      16.31       7.99      11.07
O      17.85       8.23       9.40
O      14.90       9.36       8.56
