60

Zn       8.42       7.19       7.67
Zn       5.57       7.19       7.67
H       0.95       5.38       6.49
H      13.04       7.94       9.70
H       0.95       9.00       8.86
H      13.04       6.43       5.64
H       3.46       5.46       6.54
H      10.53       7.91       9.61
H       3.46       8.92       8.81
H      10.53       6.47       5.73
H       7.78       9.23       0.93
H       6.20       9.17      14.43
H       7.78       5.15      14.42
H       6.20       5.21       0.91
C       7.04       7.18       5.08
C       7.04       7.20      10.26
C       6.95       4.60       7.66
C       6.95       9.78       7.68
C       1.46       6.19       7.00
C      12.53       7.62       8.79
C       1.46       8.19       8.34
C      12.53       6.76       6.55
C       2.85       6.22       7.03
C      11.14       7.60       8.76
C       2.85       8.16       8.31
C      11.14       6.78       6.59
C       6.96       3.15       7.67
C       6.96      11.22       7.68
C       6.98       1.93       7.67
C       6.98      12.45       7.67
C       6.98       0.58       7.67
C       6.98      13.79       7.67
C       0.74       7.19       7.67
C      13.26       7.19       7.67
C       7.43       8.34       1.46
C       6.57       8.30      13.90
C       7.43       6.03      13.89
C       6.57       6.08       1.45
C       7.45       8.31       2.85
C       6.58       8.29      12.51
C       7.45       6.06      12.50
C       6.58       6.08       2.84
C       7.02       7.19       3.57
C       7.02       7.18      11.77
C       6.99       7.22       0.74
C       6.99       7.16      14.60
Br       8.07       9.85       3.78
Br       5.99       9.85      11.58
Br       8.07       4.52      11.56
Br       5.99       4.52       3.76
N       3.53       7.19       7.67
N      10.46       7.19       7.67
O       8.15       6.91       5.63
O       5.94       6.93       9.69
O       8.15       7.46       9.71
O       5.94       7.44       5.65
O       8.05       5.17       7.92
O       5.83       9.22       7.93
O       8.05       9.21       7.42
O       5.83       5.15       7.41
