58

Zn       7.84       5.39       5.76
Zn       5.14       5.66       6.26
H       8.20       1.17       6.69
H       3.21       0.63       5.35
H       6.17       9.26       8.27
H       4.63       8.91       6.07
H       7.62       0.79       4.57
H       9.13       9.99       5.99
H       8.02       9.64       4.14
H       7.17       0.90      10.24
H       5.44       3.02       2.49
H       8.42       7.99       9.19
H       4.62      10.21       2.52
H       4.49       2.56       7.50
C       5.87       5.64       3.53
C       6.76       5.55       8.57
C       5.67       5.62       2.10
C       7.22       0.77       6.99
C       6.52       0.79       4.61
C       8.33      10.14       6.73
C       7.17      10.20       4.55
C       5.57       5.56       0.88
C       4.73       1.00       6.46
C       5.76      10.34       6.69
C       7.09       1.33       8.41
C       6.18       1.40       6.01
C       6.20       1.50       3.30
C       8.88       9.28       7.87
C       6.02       9.73       3.66
C       7.02       9.68       6.02
C       7.03       5.58       9.99
C       7.14       5.63      11.21
C       6.40       2.93       5.99
C       6.93       8.14       5.99
C       1.92       5.62       6.25
C      11.05       5.46       5.94
N       3.05       5.77       6.50
N       9.93       5.32       5.67
O       7.08       5.54       3.90
O       7.16       0.41       9.39
O       6.61       1.06       2.23
O       5.51       2.65       3.40
O      10.07       9.21       8.12
O       7.95       8.55       8.54
O       5.87       8.54       3.41
O       5.24      10.68       3.10
O       4.39       1.60       7.68
O       3.85       1.37       5.43
O       5.73      10.10       8.06
O       4.83       5.72       4.26
O       4.57       9.90       6.05
O       7.56       3.35       5.68
O       5.40       3.66       6.27
O       7.99       7.50       5.74
O       5.80       7.61       6.25
O       7.77       5.48       7.80
O       5.54       5.63       8.25
O       7.06       2.53       8.63
