258

Zr       3.59       2.63       0.82
Zr       3.43      19.78       2.73
Zr       0.35       1.34       0.31
Zr       1.60       1.71       3.60
Zr       1.48      18.40      19.57
Zr       0.18      18.48       2.23
H       0.81       7.50      14.35
H       0.72      11.77      14.73
H       0.04       9.27      18.17
H       3.07      10.93       5.04
H       2.07       8.34       8.34
H       1.93      12.61       8.82
H      17.76      18.77      11.24
H      14.09      19.02      13.47
H      14.01      19.10       9.17
H       5.44       1.17      12.00
H       8.92       0.22       9.64
H       9.18       0.28      13.92
H       9.32      13.32       0.88
H      13.59      13.81       0.99
H      11.05      17.18       0.15
H      14.45       7.86       2.18
H      10.18       7.29       2.05
H      12.79       3.94       2.77
H       4.34       2.50       3.55
H       1.65       0.89      18.49
H      19.21       0.45       2.76
H       2.65      17.38       1.42
H      14.86       4.41       4.60
H      15.68       6.02       0.69
H      17.85       4.79       0.65
H      17.11       3.31       4.61
H       9.30       5.77       0.69
H      10.74       3.24       3.87
H       8.70       1.83       3.67
H       7.23       4.41       0.56
H      12.42      16.79      19.11
H      14.49      15.38       2.29
H      16.58      16.72       2.39
H      14.48      18.19      19.27
H       8.13      15.18       2.30
H       8.30      15.79      18.51
H       6.09      16.96      18.51
H       6.01      16.48       2.36
H      13.31      12.27       2.64
H       9.39      10.28      20.10
H      10.43       8.88       0.46
H      13.67       9.88       3.11
H       4.93      -0.50      13.62
H       7.92       2.00      15.45
H       6.61       2.00      17.57
H       3.68      -0.57      15.77
H       8.01       1.18       8.12
H       4.35       0.66      10.35
H       3.05       0.84       8.25
H       6.71       1.17       6.02
H      18.33      17.51      13.12
H      16.41       0.23      14.74
H      17.66       0.29      16.88
H      -0.39      17.63      15.25
H      15.54      17.50       7.74
H      19.06       0.49       9.57
H       0.32       0.73       7.43
H      16.87      17.69       5.63
H      13.39       0.70       9.74
H      12.08      18.00      13.09
H       9.68      18.53      13.30
H      10.99       1.22       9.94
H       4.55      13.10       5.52
H       0.50      13.71       6.84
H       0.42      15.86       5.58
H       4.51      15.32       4.38
H       3.18       6.93       7.38
H       2.46       9.30       3.84
H       2.64       7.27       2.45
H       3.15       4.89       5.99
H       0.35      10.88      19.31
H      -0.13      13.26      15.74
H      -0.13      15.30      17.12
H       0.83      13.90       0.58
H      19.04       5.94      15.77
H       1.93       7.67      18.45
H       2.07       5.51      19.69
H      19.10       3.81      17.09
H       2.47       8.22      12.82
H      -0.29      11.52      12.68
H       0.25      11.87      10.30
H       3.01       8.57      10.44
C       0.45       8.26      16.34
C       0.67       8.39      14.96
C       0.75       9.66      14.37
C       0.58      10.79      15.19
C       0.31      10.69      16.56
C       0.25       9.41      17.11
C       2.48      11.90       6.86
C       2.77      10.78       6.08
C       2.62       9.48       6.59
C       2.24       9.34       7.93
C       2.01      10.45       8.76
C       2.10      11.73       8.20
C      15.96      18.91      10.07
C      16.67      18.83      11.27
C      16.01      18.85      12.51
C      14.62      18.97      12.52
C      13.88      19.07      11.33
C      14.56      19.02      10.11
C       7.23       0.71      13.09
C       6.49       0.89      11.91
C       7.08       0.75      10.65
C       8.45       0.42      10.60
C       9.22       0.27      11.76
C       8.60       0.41      13.01
C      10.05      15.29       0.44
C      10.21      13.94       0.76
C      11.48      13.39       0.96
C      12.60      14.23       0.86
C      12.47      15.60       0.57
C      11.19      16.11       0.33
C      13.75       5.85       2.55
C      13.57       7.22       2.28
C      12.29       7.75       2.09
C      11.19       6.88       2.16
C      11.34       5.51       2.40
C      12.63       5.01       2.63
C       0.75       3.27      19.23
C       6.53       2.31       2.03
C       2.80       4.67       3.36
C       4.28       0.57      18.06
C       2.32      16.94       4.06
C      17.30      18.76       0.87
C       4.09       0.93       5.70
C       5.05      18.13       0.53
C      -1.06      19.06      17.50
C      18.82       3.12       2.48
C      -1.08      19.46       5.14
C       0.14      15.50      19.77
C      15.53       4.52       3.74
C      15.12       5.28       2.64
C      15.99       5.43       1.55
C      17.21       4.75       1.53
C      17.60       3.97       2.62
C      16.78       3.90       3.75
C       9.16       4.93       1.37
C      10.16       4.63       2.32
C       9.98       3.49       3.13
C       8.84       2.70       3.03
C       7.83       3.04       2.12
C       8.01       4.16       1.28
C      13.17      16.57      19.87
C      13.66      16.46       0.62
C      14.65      16.19       1.58
C      15.81      16.95       1.65
C      16.00      18.03       0.77
C      14.33      17.35      19.95
C       7.83      15.78       1.44
C       8.71      15.90       0.35
C       7.63      15.69      19.37
C       6.40      16.35      19.36
C       6.26      17.28       0.38
C       6.64      16.49       1.48
C      12.68      11.53       2.14
C      11.67      11.95       1.27
C      10.85      10.97       0.69
C      11.05       9.62       0.96
C      12.08       9.19       1.82
C      12.89      10.18       2.41
C       5.29       0.06      14.48
C       6.51       0.75      14.38
C       6.98       1.45      15.51
C       6.25       1.46      16.70
C       5.06       0.72      16.80
C       4.59       0.02      15.68
C       6.92       1.07       8.17
C       6.28       0.89       9.41
C       4.88       0.82       9.41
C       4.14       0.91       8.23
C       4.80       1.01       7.00
C       6.20       1.09       6.98
C      17.97      18.13      13.93
C      16.77      18.86      13.78
C      17.31      -0.36      14.85
C      18.02      -0.31      16.05
C      18.21      18.96      16.20
C      -1.31      18.19      15.13
C      16.38      18.20       7.67
C      16.71      18.98       8.80
C      18.80      -0.13       8.71
C      19.51       0.01       7.52
C      18.17      19.22       6.41
C      17.12      18.30       6.49
C      12.79       0.20      10.51
C      12.42      19.31      11.40
C      11.63      18.72      12.41
C      10.27      19.02      12.53
C      10.65      -0.07      11.64
C      11.44       0.50      10.62
C       3.65      13.72       5.55
C       2.53      13.25       6.25
C       1.38      14.07       6.30
C       1.33      15.27       5.61
C       2.46      15.72       4.90
C       3.63      14.96       4.91
C       3.03       7.02       6.30
C       2.79       8.28       5.73
C       2.67       8.35       4.32
C       2.75       7.20       3.53
C       2.90       5.95       4.13
C       3.04       5.87       5.52
C       0.20      11.84      18.81
C       0.15      11.90      17.41
C      -0.03      13.17      16.82
C      -0.06      14.32      17.59
C       0.01      14.24      18.99
C       0.10      12.98      19.60
C      -0.31       5.85      16.64
C       0.47       6.95      17.03
C       1.31       6.83      18.16
C       1.39       5.63      18.85
C       0.59       4.54      18.47
C      -0.27       4.66      17.37
C       1.96       9.01      12.27
C       1.04       9.84      12.93
C       0.45      10.88      12.19
C       0.75      11.08      10.85
C       1.67      10.25      10.18
C       2.26       9.21      10.92
O      -0.20       2.42      19.30
O       6.36       1.20       2.61
O       3.34       4.54       2.22
O       4.19       1.50      18.92
O       3.72      -0.59      18.15
O       2.15       3.75       4.00
O       5.63       2.95       1.37
O       1.91       3.13      19.77
O       4.07       0.62       0.88
O       1.71       2.23       1.59
O       3.78       1.95       2.98
O       1.68       0.52      19.39
O       3.29      17.73       3.88
O      17.46      19.90       0.32
O       2.94       1.46       5.54
O       3.57      17.33      19.67
O       0.06      18.50      17.67
O      19.59       2.90       3.46
O      -0.99      18.54       4.26
O       0.31      16.62       0.81
O       0.42       0.64       5.04
O       0.84      16.40      19.16
O       4.75       0.30       4.79
O      18.96       2.64       1.29
O      19.33      -0.22      18.38
O       4.91      18.61       1.72
O       1.15      17.07       3.54
O      18.18      18.14       1.57
O       0.36      19.53       0.45
O       2.42      -0.15       3.19
O       0.11       0.49       2.40
O       2.30      18.29       1.44
