55

Al      -2.40       3.56       8.16
Al       0.97       3.50       8.16
H      -0.75       2.18       7.04
H       2.63       4.68       9.55
H       1.35       2.08      11.78
H       1.64       1.49      14.21
H      -2.47       2.55      14.90
H       4.37       5.47       1.63
H       0.26       4.20       1.81
H       0.56       3.67       4.25
H       0.51      -0.54       8.21
H       4.82      -0.51       8.04
H      -2.82       7.61       8.25
H       3.54       3.27      11.40
H       2.89       3.21      13.03
H      -1.64       4.73       5.13
H      -1.01       5.35       3.61
H       1.54       6.57       8.05
C       2.64       1.12       8.08
C       2.66       3.97       5.77
C      -0.70       5.98       8.22
C      -0.72       3.08      10.55
C      -0.69       2.69      11.97
C       0.53       2.21      12.49
C       0.70       1.89      13.82
C      -0.40       2.06      14.69
C      -1.63       2.47      14.20
C      -1.82       2.80      12.83
C       3.53       5.09       2.23
C       2.30       4.90       1.61
C       1.20       4.39       2.33
C       1.37       4.09       3.66
C       2.60       4.30       4.33
C       3.72       4.81       3.60
C      -0.67       7.45       8.18
C       2.66      -0.37       8.11
C       0.55       8.17       8.10
C       1.45      -1.08       8.18
C       3.88      -1.06       8.08
C      -1.88       8.17       8.21
N      -0.36       1.79      16.08
N       2.26       5.22       0.23
N       3.69       3.23      12.40
N      -1.79       5.04       4.18
O       3.76       1.73       8.00
O       1.55       3.71       6.36
O       0.44       5.37       8.16
O      -1.87       3.22       9.98
O      -1.82       5.38       8.31
O       0.40       3.29       9.97
O       1.50       1.68       8.14
O       3.80       3.95       6.35
O      -0.72       3.03       7.51
O       2.64       4.06       8.80
O       1.75       7.55       8.04
