59

Zn       7.12       5.86       5.37
Zn       4.24       6.01       5.44
H       3.44       6.70       1.17
H       8.85       1.63       5.11
H       8.63       5.64       2.68
H      10.08       4.63       2.31
H       8.72       4.00       3.31
H      10.03       4.29       8.64
H       9.51       5.42       9.91
H       8.34       4.88       8.67
H       2.03       6.02       8.61
H       3.37       8.52       9.95
H       4.88       9.36       9.61
H       2.09       5.32       3.49
H       4.21       8.23       8.40
H       3.50       1.66       5.02
H       9.31      10.13       5.29
H       9.13       7.22       8.18
H       1.70       7.69       8.09
H       6.36       5.81       0.83
H       6.23       5.50      10.05
H       3.95      10.20       5.12
H       8.95      10.26       7.03
H       8.50       1.75       6.86
C       5.65       3.34       5.31
C       1.48       5.54       4.36
C      10.00       5.38       4.32
C       5.55       5.98       8.02
C       9.91       6.03       6.49
C       9.76       6.35       7.97
C       1.42       6.64       7.95
C       6.01       8.51       5.55
C       5.43       6.10       2.80
C       4.31       6.35       0.61
C       5.42       6.06       1.32
C       5.61       1.85       5.39
C       5.13       7.29      10.14
C       5.65       6.23       9.49
C       6.76       1.11       5.64
C       9.33       4.89       3.08
C       9.38       5.16       8.85
C       4.35       8.40       9.47
C       4.42       1.12       5.21
C       4.88      10.75       5.28
C       6.06      10.00       5.53
C       7.22      10.74       5.72
C       8.70      10.66       6.03
C       8.24       1.21       5.93
C       1.39       6.20       6.51
N       2.16       5.97       5.46
N       9.22       5.67       5.41
O       6.81       3.86       5.22
O       4.54       3.97       5.36
O       6.65       5.75       7.42
O       4.40       6.00       7.49
O       7.14       7.90       5.58
O       4.86       7.96       5.53
O       6.57       6.11       3.37
O       4.30       6.10       3.40
