72

Zn       9.87       9.43      10.36
Zn       9.25       6.88       8.40
Zn       7.44       9.41       8.33
Zn       7.44       7.55      11.03
H       5.58       8.86       2.11
H       6.33       9.24       4.44
H      10.27       7.02      17.32
H       7.53       5.00       2.15
H       7.25       5.05       0.11
H       9.71      11.28      16.97
H       8.25      12.66      15.83
H       9.97      13.01      15.54
H       8.75      13.52      14.36
H       9.95      11.48      13.53
H       8.23      11.20      13.74
H       8.76       2.80       8.77
H       8.94      13.82      11.05
H       8.04       3.17      11.75
H       8.81      13.67       7.96
H      13.91       9.15      10.12
H       3.10       8.15       8.17
H       3.17       9.30      11.05
H       8.27       5.42       4.47
C       8.26       4.84      10.34
C      10.24       9.29      18.76
C       6.11       6.76       0.53
C       8.81      11.86       9.16
C       7.36       7.36       4.60
C       8.89      13.32       8.99
C       8.93      14.20      10.02
C       8.30       3.41      10.72
C       8.56       2.46       9.79
C       3.55       8.97      10.08
C       2.70       8.56       9.11
C       9.98       9.17      17.33
C      13.41       7.93       8.50
C      14.32       8.58       9.28
C      11.95       8.04       8.79
C       5.02       8.85       9.94
C       7.80       7.63       5.99
C       9.19       8.73      13.11
C       9.48       8.89      14.57
C       9.46      10.18      15.15
C       9.71      10.29      16.52
C       9.16      11.40      14.30
C      10.04       7.90      16.73
C       9.02      12.71      15.06
C      13.82       7.08       7.43
C       5.14       7.71       0.07
C       9.81       6.46      14.76
C       9.77       7.76      15.36
C       7.27       5.94       2.63
C       7.69       6.17       3.94
C       6.59       8.32       3.93
C       6.17       8.10       2.62
C       6.51       6.91       1.94
N      14.19       6.38       6.57
N       7.97      11.98      18.82
N       9.85       5.41      14.26
O       8.50       8.29       9.55
O       8.49       6.74       6.59
O       8.09       8.17      12.81
O       7.45       8.76       6.49
O      10.07       9.18      12.31
O      11.61       8.97       9.60
O       5.62       8.32      10.94
O       8.89       5.17       9.28
O       8.15      11.23       8.26
O       7.58       5.61      11.10
O       9.40      11.33      10.17
O      11.19       7.20       8.22
O       5.54       9.28       8.86
