244

Zn      26.21       8.44      16.30
Zn       9.28       7.41      13.78
Zn       9.33       5.68      16.45
Zn      10.88       8.52      16.29
Zn      20.17       1.57      23.00
Zn      18.61       4.36      22.80
Zn      18.52       2.69      25.54
Zn      16.96       1.62      22.92
Zn      18.57      12.55       9.84
Zn      16.99      11.52       7.26
Zn      20.17      11.52       7.20
Zn      18.52      14.29       7.11
Zn       9.24      15.60       0.75
Zn       1.63       0.95       0.60
Zn      17.00       0.98       0.62
Zn      18.52      14.92      29.46
H      29.96      15.27      20.60
H      18.57      16.04      12.62
H      20.33       6.91      19.54
H      21.22       7.51      20.96
H      23.01       8.46      19.45
H      22.11       7.87      18.03
H      16.81      10.71      13.54
H      15.92      12.25      13.46
H      14.13      11.30      14.97
H      15.02       9.76      15.05
H      21.21      12.25      13.45
H      20.32      10.71      13.53
H      22.11       9.76      15.04
H      23.00      11.30      14.96
H      13.72       1.62      19.83
H      12.83       2.21      21.26
H      11.04       3.16      19.75
H      11.93       2.57      18.32
H      18.57       9.19      30.25
H      26.09      -0.63      25.75
H      34.48      15.25      25.83
H      23.41      -1.22      24.32
H      24.30       0.33      24.24
H      14.13       1.39      30.67
H      15.02      -0.15      30.75
H      16.80       0.80      29.24
H      15.91       2.34      29.16
H      20.71       4.71       2.97
H       5.74       0.37       2.31
H       4.85       0.96       3.73
H       6.63       0.01       5.24
H      16.80      16.83       3.82
H      25.20      12.46       2.61
H      26.09      13.05       4.04
H      24.30      12.11       5.55
H      23.41      11.51       4.12
C      25.29       8.87      13.55
C       9.29       4.45      13.78
C      25.30       6.14      17.86
C      11.85       6.17      17.86
C      27.82      10.57      17.62
C      11.84       8.88      13.54
C      21.14       3.90      21.41
C      18.57       5.63      25.48
C      21.10       1.20      25.74
C      15.99       1.20      25.71
C      18.57      -0.50      21.63
C      16.03       3.93      21.39
C      16.02      11.10      10.02
C      18.56       9.41       5.92
C      21.12      11.10      10.01
C      21.10      13.84       5.68
C      18.55      15.52       9.80
C      16.00      13.83       5.69
C      11.83      16.05       2.16
C      18.61       3.06       1.93
C      25.29      16.06       2.16
C      25.29      -1.02      29.27
C      18.54      11.96      29.50
C      11.83      -1.03      29.26
C      26.71      12.55      18.88
C      28.94      14.95      20.40
C      27.80      11.81      18.41
C      27.85      15.67      20.85
C      28.53      13.81      19.68
C      27.13      13.69      19.60
C       9.28       3.08      11.59
C       9.29      -0.52      11.95
C       9.29       3.23      12.98
C       9.28      -0.65      10.57
C       9.29       0.84      12.33
C       9.28       1.71      11.22
C      22.20       4.44      20.52
C      24.27       5.55      18.76
C      22.15       5.74      20.00
C      24.33       4.24      19.28
C      23.14       6.27      19.17
C      23.34       3.70      20.12
C      21.33       7.01      19.99
C      22.45       7.61      19.04
C      14.95      10.53      10.89
C      12.88       9.43      12.63
C      14.99      10.63      12.28
C      12.82       9.33      11.22
C      14.01      10.10      13.11
C      13.82       9.86      10.38
C      15.81      11.16      13.44
C      14.69      10.56      14.38
C      22.19      10.53      10.88
C      24.25       9.43      12.63
C      22.14      10.63      12.27
C      24.32       9.32      11.22
C      23.13      10.10      13.10
C      23.32       9.86      10.38
C      21.32      11.16      13.43
C      22.44      10.56      14.37
C      14.98       4.53      20.51
C      12.91       5.63      18.76
C      13.85       3.81      20.11
C      14.05       6.37      19.16
C      12.86       4.33      19.28
C      15.04       5.84      20.00
C      13.16       2.47      20.24
C      12.04       3.06      19.30
C      18.57       8.20      25.78
C      18.56       9.42      29.19
C      18.57       6.88      26.24
C      18.56      10.72      28.71
C      18.57       8.50      28.12
C      18.57       9.12      26.86
C      24.22      -0.45      28.40
C      22.15       0.65      26.66
C      24.27      -0.54      27.01
C      22.09       0.76      28.06
C      23.28      -0.02      26.18
C      23.09       0.23      28.90
C      25.09      -1.07      25.86
C      23.97      -0.48      24.91
C      12.87      -0.48      28.34
C      14.93       0.62      26.58
C      14.00       0.19      28.81
C      13.80      -0.05      26.09
C      14.98       0.72      27.98
C      12.80      -0.58      26.93
C      14.69       0.65      30.08
C      15.81       1.25      29.13
C      17.45       7.43       4.68
C      19.69       5.02       3.17
C      18.54       8.17       5.14
C      18.59       4.31       2.71
C      19.27       6.16       3.89
C      17.87       6.28       3.96
C      12.87      15.46       3.05
C      14.93      14.36       4.80
C      14.00      16.18       3.45
C      13.80      13.62       4.40
C      14.98      15.66       4.28
C      12.81      14.15       3.56
C       5.41       0.11       3.32
C      15.81      16.93       4.27
C      24.22      15.53       3.05
C      22.15      14.43       4.80
C      24.27      14.23       3.57
C      22.09      15.74       4.29
C      23.28      13.71       4.40
C      23.09      16.27       3.45
C      25.09      12.96       3.59
C      23.97      12.36       4.53
S      29.32      12.52      18.86
S      26.32      14.97      20.41
S       9.29       1.70      13.82
S       9.28       0.87       9.72
S      18.57       6.78      27.98
S      18.56      10.83      26.97
S      20.07       7.46       4.70
S      17.06       5.00       3.16
Cl      25.06      12.18      18.65
Cl       9.28       4.32      10.43
Cl      18.57       8.71      24.16
Cl      15.80       7.79       4.91
O      27.85       7.52      15.74
O      25.08       9.04      14.80
O       9.28       5.56      13.15
O      26.30       5.41      17.56
O      26.28       8.27      13.02
O      25.08       7.34      17.48
O       9.32       4.30      15.05
O      10.90       5.35      17.58
O      28.98      10.13      17.32
O      11.97       7.37      17.45
O      26.70      10.06      17.31
O      10.86       8.27      13.02
O      12.02       9.09      14.79
O      18.56       2.55      23.57
O      21.26       2.71      21.82
O      18.60       5.72      24.21
O      20.12       1.81      26.27
O      20.18       4.71      21.68
O      21.30       1.00      24.50
O      18.53       4.55      26.17
O      16.94       1.81      26.32
O      17.43      -0.00      21.91
O      15.87       1.05      24.45
O      19.72      -0.04      21.97
O      17.02       4.66      21.70
O      15.83       2.72      21.75
O      18.59      12.48       7.87
O      16.98      11.69      10.63
O      17.44       9.91       6.24
O      21.24      10.97       8.75
O      15.90      10.96       8.77
O      20.16      11.68      10.62
O      19.72       9.89       6.19
O      21.30      12.63       6.04
O      18.53      15.65       8.53
O      20.11      14.58       6.00
O      18.57      14.42      10.46
O      15.89      12.63       6.09
O      16.95      14.64       5.98
O      18.59      15.03      31.42
O      10.83      15.32       1.85
O      19.75       2.58       1.62
O      25.18      17.27       1.77
O      12.03      17.26       1.78
O      26.23      15.25       1.87
O      17.46       2.58       1.63
O      25.18      -0.85      30.52
O      18.53      13.06      28.83
O      26.23      -1.63      28.66
O      18.53      11.83      30.77
O      12.04      -0.85      30.51
O      10.83      -1.63      28.73
F      25.36       3.41      18.99
F      23.54       2.43      20.53
F      11.80       8.71      10.60
F      13.62       9.68       9.06
F      25.34       8.70      10.60
F      23.52       9.68       9.06
F      14.25       7.64      18.74
F      16.07       6.67      20.28
F      21.06       1.37      28.69
F      22.89       0.40      30.22
F      13.59      -0.23      24.77
F      11.78      -1.20      26.31
F      13.60      12.35       4.81
F      11.78      13.32       3.27
F      21.07      16.57       4.57
F      13.61       0.12       3.03
