110

Zn      -1.18      -6.15      12.21
Zn      -6.94       4.91      10.38
Zn       5.30       3.76      12.24
Zn      -1.16       0.84       1.73
H      -3.01      -4.22      10.40
H      -3.84       5.02       9.19
H      -3.02       8.54       2.27
H      -2.22       6.51       2.27
H       4.25      -4.70      10.62
H       4.79       7.47       6.13
H      -1.34       4.07       8.46
H      -1.30      -2.66       8.66
H       0.62       3.68      10.78
H      -2.90      -0.64       7.02
H       1.87       0.10       6.06
H       2.99       0.80       8.06
H       7.08       2.68       5.10
H       6.55       0.19       3.45
H       3.14       4.65       9.98
H      12.16      -0.37       4.49
H      -2.25       3.82       2.81
H       9.51      10.14       2.07
H       6.08       6.00       7.90
H       1.90      -5.11      11.56
H      -0.66       9.54       0.57
H       0.42       7.45       0.97
H      -1.81       3.75      10.17
H      -2.89      -1.99       9.14
C      11.83      -5.21       9.97
C      -4.06       5.89       9.80
C       2.51       6.57      10.98
C       6.22      11.26       3.78
C       5.44       1.98       8.31
C       2.65       0.37       3.48
C      -0.71       5.09       1.77
C      -3.22      10.32       1.11
C      -1.22       8.84       1.19
C      -0.59       7.55       1.38
C      -2.46       9.21       1.61
C      -1.20       6.43       1.86
C       0.37       5.75      10.01
C      11.90      -2.74       6.27
C       1.16       6.80      10.49
C      11.58      -3.22       5.00
C       6.10      -5.76      10.59
C       5.32       9.24       5.07
C       4.72      -5.67      10.44
C       5.21       8.48       6.23
C      -1.75       6.95      10.11
C      11.35      -4.80       7.48
C       3.29       5.43      10.73
C      12.21      -1.12       3.70
C      -1.00       5.81       9.80
C      11.80      -3.48       7.45
C      -1.14       4.33       9.51
C      -2.31      -2.41       8.31
C       0.39       4.24       9.86
C      -2.28      -1.54       7.00
C       4.83       0.92       4.70
C       5.48       1.31       5.88
C       3.48       0.53       4.67
C       4.86       1.35       7.13
C       2.90       0.44       5.96
C       3.55       0.84       7.13
C       6.78       1.63       5.17
C       6.09       1.10       3.87
C       6.55       2.84       8.43
C       2.91       0.63       2.12
C      -1.34       3.91       2.23
C      -4.59      10.61       1.35
C       4.93       2.07       9.63
C       1.25       0.17       3.41
C       0.38       4.55       1.06
C      -2.94      11.23       0.06
C       8.91      -6.58      12.03
C       6.51      10.83       2.48
C       6.14       6.74       8.69
C       1.66      -6.01      10.99
C      11.55      -5.64       8.65
C      -3.20       6.92      10.23
N      -2.51      -6.25      10.71
N      -5.30       6.10      10.27
N       4.34       5.38      11.57
N      12.63      -0.79       2.48
N       6.69       3.36       9.65
N       1.81       0.63       1.36
N      -0.69       2.81       1.81
N       9.73      11.56       0.51
N       5.65       2.86      10.42
N       0.75       0.32       2.19
N       0.40       3.22       1.07
N      -6.56       3.87      12.07
N      12.54       0.79       0.02
N       6.93      11.83       1.70
N       6.57       6.39       9.92
N       0.41      -6.50      11.01
F       6.76      -4.61      10.93
F       4.85       8.68       3.92
F       1.21       3.71       8.84
F      -0.99      -1.14       6.60
F       7.90       0.89       5.59
F       6.06       2.08       2.85
F       7.43       3.20       7.49
F       4.10       0.87       1.55
F       3.84       1.47      10.14
F       0.41      -0.13       4.41
F       1.32       5.21       0.35
F      -4.33       3.31      11.77
F      11.16       2.60       0.36
F       6.47       9.60       1.95
