106

Zr      15.38       1.90       0.19
Zr      15.50      18.58      16.82
Zr      15.47      18.52       2.88
Zr      15.41      15.84       0.53
Zr      12.94      18.36       0.37
Zr       2.46      18.36       0.36
H       1.80       1.85      17.24
H      13.59      16.63      17.36
H       1.78      16.29       2.48
H      13.58       1.50       2.40
H      14.65      16.81      14.91
H       0.88      14.27      17.90
H      14.91      13.94       2.31
H       0.64      17.17       5.27
H       0.46       1.37       4.74
H      14.69       4.28       1.51
H      14.91       4.18      17.37
H       0.73       0.93      14.52
H      14.57      17.04       4.94
H       0.76       3.98       1.68
H      14.65       1.13      14.71
H      14.85      13.84      18.17
C       7.66       6.84       0.38
C       6.54       4.88       0.48
C       8.80       4.89       0.33
C       7.69      10.91       0.35
C       8.84      12.85       0.43
C       6.58      12.88       0.25
C       7.75      18.66      11.88
C       6.61      18.70      13.84
C       8.88      18.81      13.84
C       7.71      18.48       7.82
C       6.55      18.45       5.88
C       8.82      18.32       5.85
C      12.13       2.53       0.18
C       3.30      18.64      16.22
C      12.18      18.88      16.23
C       3.22       2.49       0.53
C       3.23      18.52       3.51
C      12.16      15.22       0.56
C       3.26      15.25       0.20
C      12.13      18.22       3.47
C       4.33      18.52       4.45
C       5.32      18.49       5.16
C      10.03      18.23       5.10
C      11.01      18.19       4.39
C       5.39      18.67      14.58
C       4.41      18.64      15.28
C      10.10      18.89      14.58
C      11.07      18.92      15.30
C       7.75      18.59      10.46
C       7.73      18.54       9.25
C       4.38      14.33       0.14
C       5.37      13.62       0.17
C      10.07      13.57       0.51
C      11.06      14.28       0.56
C       5.32       4.13       0.56
C       4.33       3.42       0.58
C      11.02       3.46       0.20
C      10.02       4.16       0.25
C       7.66       8.27       0.37
C       7.67       9.48       0.36
N       6.46       6.22       0.47
N       7.67       4.15       0.42
N       8.86       6.24       0.30
N       8.90      11.50       0.45
N       7.72      13.59       0.33
N       6.50      11.53       0.25
N       6.55      18.63      12.49
N       7.74      18.80      14.57
N       8.95      18.75      12.49
N       6.50      18.52       7.23
N       7.67      18.34       5.14
N       8.90      18.38       7.20
O      13.31       3.00       0.15
O      11.79       1.31       0.22
O       2.12      18.66      15.74
O       3.64      18.63      17.44
O      13.36      19.00      15.77
O      11.85      18.67      17.45
O       2.05       2.94       0.68
O       3.56       1.28       0.31
O       0.17       3.64      17.70
O      15.33       3.61       1.80
O       0.05       1.26      15.13
O      15.39      17.19      15.41
O      14.37       0.79      18.23
O       1.35       1.22      17.83
O       2.04      18.55       3.98
O       3.57      18.48       2.29
O      13.35      14.74       0.58
O      11.82      16.44       0.50
O       2.09      14.80       0.03
O       3.59      16.46       0.46
O      13.30      18.07       3.92
O      11.80      18.45       2.25
O      15.47      16.90       4.58
O      15.21       1.03       4.20
O       0.16      14.48       1.98
O      15.42      14.57      17.85
O       1.32      16.93       1.90
O      14.35      17.35       1.46
O       1.01       0.47       1.38
O      14.11      17.22      17.93
O      14.04       0.92       1.77
O       1.09      17.67      18.33
