154

Zn       6.83       5.60      14.19
Zn       6.56       8.36      14.33
Zn       6.78       8.27       1.07
Zn       6.51       5.51       0.93
H       5.36       3.57      15.68
H       4.36       1.43      16.68
H       8.27       3.41      12.75
H       8.05      10.38      12.87
H       9.08      12.51      11.90
H       5.14      10.53      15.81
H       6.74       8.68       5.42
H       6.65       4.42       5.03
H       6.76       5.17       9.84
H       6.68       9.43      10.23
H       6.69       9.08      18.53
H       6.72      10.35      20.67
H       6.74       4.80      18.52
H       6.71       4.81      25.32
H       6.70       3.55      23.18
H       6.80       9.10      25.33
H      11.12       5.17      14.24
H      10.71       9.42      14.31
H       2.27       8.70      14.31
H       2.68       4.45      14.26
H       5.43      10.36      28.18
H       4.44      12.50      27.18
H       8.25      10.45       2.49
H       8.00       3.48       2.38
H       9.03       1.34       3.34
H       5.21       3.39      28.04
H      11.08       8.71       1.03
H      10.66       4.46       0.97
H       2.22       5.18       0.98
H       2.64       9.43       1.03
H       6.68       9.95       6.74
H       6.68       3.90       8.52
H      12.45       3.91      14.31
H       0.94       9.97      14.31
H      12.40       9.97       1.00
H       0.89       3.91       1.01
C       6.69       6.96      16.89
C       4.08       6.78      14.28
C       6.72       7.12      11.64
C       9.32       7.10      14.26
C       6.75       6.94      26.95
C       4.03       7.10       0.99
C       6.68       6.73       3.62
C       9.27       6.78       1.00
C       5.97       2.92      15.06
C       5.89       1.52      15.13
C       4.99       0.85      16.02
C       7.62       2.83      13.40
C       7.62       1.43      13.38
C       8.46       0.63      12.52
C       7.44      11.03      13.50
C       7.54      12.43      13.44
C       8.44      13.10      12.55
C       5.80      11.11      15.16
C       5.81      12.51      15.19
C       4.97      13.32      16.05
C       6.73       0.76      14.27
C       6.70      13.19      14.30
C       6.73       7.71       5.93
C       6.69       5.30       5.68
C       6.71       5.14       7.05
C       6.74       6.27       7.93
C       6.75       6.14       9.33
C       6.71       8.55       9.58
C       6.72       8.71       8.21
C       6.73       7.58       7.33
C       6.71       6.59       5.11
C       6.73       7.26      10.15
C       6.70       8.15      19.09
C       6.72       8.17      20.49
C       6.72       9.41      21.22
C       6.72       5.73      19.09
C       6.72       5.70      20.49
C       6.71       4.48      21.26
C       6.73       5.74      24.76
C       6.73       5.72      23.35
C       6.71       4.49      22.62
C       6.77       8.17      24.76
C       6.75       8.20      23.36
C       6.75       9.41      22.59
C       6.70       6.94      18.40
C       6.72       6.94      21.21
C       6.75       6.96      25.45
C       6.73       6.96      22.63
C      11.62       6.14      14.26
C      11.36       8.56      14.29
C      12.73       8.72      14.30
C       0.36       7.59      14.29
C       1.77       7.73      14.30
C       2.03       5.32      14.27
C       0.66       5.15      14.28
C      13.03       6.28      14.28
C      10.81       7.26      14.27
C       2.59       6.61      14.29
C       5.93      10.96       0.21
C       5.86      12.35       0.13
C       5.09      13.08      27.83
C       7.59      11.03       1.85
C       7.60      12.43       1.87
C       8.46      13.23       2.72
C       7.39       2.84       1.75
C       7.48       1.44       1.81
C       8.38       0.76       2.69
C       5.73       2.76       0.10
C       5.73       1.36       0.07
C       5.01       0.61      27.81
C       6.71      13.11       0.99
C       6.63       0.69       0.95
C      11.58       7.74       1.01
C      11.32       5.32       0.99
C      12.69       5.16       0.99
C       0.32       6.29       1.00
C       1.72       6.15       0.99
C       1.98       8.56       1.01
C       0.61       8.73       1.01
C      12.98       7.60       1.01
C      10.76       6.62       1.00
C       2.54       7.27       1.00
N       6.82       3.54      14.22
N       6.59      10.41      14.33
N       6.78      10.33       1.04
N       6.54       3.46       0.92
Cl       3.89      12.52      17.13
Cl       9.55       1.42      11.45
Cl       6.76      10.94      23.42
Cl       6.70       2.96      20.43
Cl       3.93       1.41      26.73
Cl       9.55      12.43       3.78
O       6.80       5.85      16.28
O       6.57       8.10      16.35
O       4.53       7.97      14.31
O       4.78       5.72      14.25
O       6.62       8.20      12.30
O       6.79       5.95      12.14
O       8.85       5.91      14.19
O       8.63       8.17      14.32
O       6.87       8.05      27.56
O       6.63       5.80      27.50
O       4.49       5.91       0.97
O       4.73       8.16       1.02
O       6.58       5.65       2.96
O       6.75       7.90       3.12
O       8.80       7.97       1.07
O       8.58       5.71       0.93
O       6.71       9.99       7.72
O       6.70       3.86       7.55
O       0.17       3.87      14.28
O      13.22      10.00      14.32
O       0.12      10.01       1.02
O      13.17       3.88       0.99
