114

Zn       2.34       3.27       7.64
Zn       3.74       5.57       7.61
Zn       2.27      -8.05      14.37
Zn       3.98      17.05       0.88
Zn      -3.81       9.28       0.98
Zn      -8.49      -0.45      14.29
H       4.06       3.17       3.64
H      -1.53       4.80       5.74
H      14.03       1.82       0.22
H       9.21      -4.89      15.01
H       5.68      -2.44      15.12
H      10.49       4.25       0.10
H       1.17      13.80       2.25
H      -0.34      11.80       2.07
H      -6.59       3.45      13.07
H      -5.29       5.59      13.27
H       9.92       3.42       7.06
H       4.33       0.66      10.54
H      11.14       2.79       4.98
H       9.87       2.21       2.95
H       5.27       2.23       1.67
H       5.79       4.65      11.16
H       5.82      -0.16      12.37
H       8.10       3.58       8.30
H       7.04       4.79       7.54
H       6.49       3.12       7.74
H       8.52       3.85      13.22
H       7.36       5.15      12.88
H       0.70       8.53       9.21
H       7.20       4.16      14.34
H      -1.01       9.46      10.80
H      -1.02       5.74      12.95
H       0.52       4.74      11.24
H       2.03       6.13       3.71
H       0.62       7.39       2.07
H      -2.92       6.24       4.22
C       4.17       3.20       9.60
C       5.78       0.90      12.12
C       4.96       1.35      11.09
C       4.92       3.88       5.94
C       4.97       2.71      10.75
C       0.29       7.92      10.01
C      -0.65       8.44      10.90
C      -1.11       7.65      11.97
C      -0.67       6.33      12.11
C       0.20       5.78      11.17
C       0.70       6.59      10.14
C       7.23       3.15       4.97
C       0.94       6.12       3.79
C       0.16       6.84       2.89
C      -1.23       6.91       3.07
C       1.22       4.75       5.82
C      -1.84       6.18       4.10
C      -1.07       5.39       4.94
C       0.33       5.39       4.81
C      11.27       1.75       0.31
C       7.81       1.51       1.52
C       1.95      15.42       0.22
C       5.81       3.33       4.86
C      -1.99       8.21      13.03
C       8.30      -2.30      14.86
C       7.52       1.25      13.87
C      -7.54       1.94      15.11
C       1.67       5.97       9.19
C      -2.01       7.73       2.11
C      13.57       2.80       0.10
C       8.13      -4.81      15.12
C       7.52      -3.55      15.02
C       6.13      -3.43      15.16
C       5.14       3.02       3.69
C      11.57       4.18       0.05
C      12.18       2.92       0.18
C       0.80      13.45       1.28
C      -0.02      12.33       1.18
C      -6.65       3.14      15.20
C       7.98       3.38       6.18
C      -6.27       3.83      14.05
C      -5.53       5.00      14.15
C       1.14      14.17       0.12
C       9.36       3.24       6.14
C       5.82       2.50       2.58
C      10.05       2.86       4.97
C       9.34       2.55       3.84
C       7.93       2.64       3.81
C       7.36       3.74       7.50
C       7.46       4.14      13.28
C       7.18       2.28       2.64
C       5.79       3.60      11.46
C       6.59       3.17      12.52
C       6.58       1.80      12.83
O       3.27       2.41       9.11
O       9.34      -2.27      14.10
O       7.26       1.48      15.11
O       4.42       4.37       9.15
O       8.50       0.59      13.43
O      -2.25      10.60       0.68
O      -7.29       1.08      14.18
O      -3.06       8.35       2.53
O      -1.57       7.78       0.92
O       4.01       3.11       6.37
O       5.08       5.11       6.29
O      11.60       0.74       1.04
O       0.93       3.60       6.32
O       2.25       5.43       6.12
O       1.52       4.74       8.93
O       2.61       6.72       8.71
O       3.96      -6.90      14.94
O       7.39       1.74       0.31
O       8.68       0.64       1.82
O      -4.60       7.64      14.74
O       2.92      15.43       1.07
O      -2.93       9.04      12.71
O      -1.74       7.82      14.21
O      14.09       7.44       0.23
