184

Cu       4.41      11.42      10.21
Cu       0.08       2.97       0.71
Cu       4.26      10.17      21.12
Cu       8.59       4.22      11.63
H       3.76       0.73       8.19
H       8.09      13.66       2.73
H       4.90       6.46      19.10
H       0.57       7.93      13.65
H       2.32       1.60       8.79
H       6.65      12.79       2.13
H       6.34       5.60      19.71
H       2.01       8.80      13.04
H       4.15       1.64      10.47
H       8.48      12.75       0.45
H       4.51       5.55      21.39
H       0.18       8.84      11.37
H       4.22      14.25      10.49
H       8.55       0.14       0.43
H       4.44       7.34      21.41
H       0.11       7.05      11.34
H       2.79       0.71      11.11
H       7.12      13.69      21.64
H       5.87       6.49       0.20
H       1.54       7.90      10.72
H       1.05      10.49       6.47
H       5.38       3.91       4.44
H       7.61      11.10      17.39
H       3.28       3.29      15.36
H       2.77      10.50       6.93
H       7.10       3.89       3.98
H       5.89      11.09      17.85
H       1.56       3.30      14.90
H       1.61       8.56       8.03
H       5.94       5.83       2.89
H       7.05      13.03      18.95
H       2.72       1.36      13.80
H       0.43       9.67       8.78
H       4.76       4.73       2.14
H       8.23      11.92      19.69
H       3.90       2.47      13.06
H       2.14       9.75       9.26
H       6.47       4.65       1.65
H       6.52      11.84      20.18
H       2.19       2.55      12.57
H       3.50       6.98      10.73
H       7.83       7.41       0.19
H       5.16       0.21      21.65
H       0.83      14.18      11.10
H       4.23       8.32       9.80
H       8.56       6.08       1.12
H       4.43      13.27      20.72
H       0.10       1.12      12.04
H       5.21       6.10       9.18
H       0.88       8.29       1.74
H       3.45       1.09      20.09
H       7.79      13.30      12.66
H       5.71       5.81      10.85
H       1.38       8.58       0.07
H       2.95       1.39      21.77
H       7.28      13.01      10.98
H       6.46       7.14       9.91
H       2.13       7.26       1.01
H       2.20       0.06      20.83
H       6.53      14.33      11.92
H       5.77      11.17      14.58
H       1.44       3.23      18.18
H       2.89      10.42       3.66
H       7.22       3.97       7.26
H       6.17      11.64      12.91
H       1.84       2.75      19.84
H       2.49       9.95       1.99
H       6.82       4.44       8.92
H       8.22      11.62      14.42
H       3.89       2.77      18.33
H       0.44       9.97       3.50
H       4.77       4.42       7.41
H       8.39      10.48      13.08
H       4.06       3.92      19.67
H       0.27      11.11       2.16
H       4.61       3.28       8.75
H       7.97       9.89      14.71
H       3.64       4.51      18.04
H       0.69      11.70       3.80
H       5.02       2.69       7.12
C       2.68      12.73       8.22
C       7.01       1.66       2.69
C       5.98       8.86      19.14
C       1.65       5.54      13.61
C       0.44      12.67       7.96
C       4.77       1.72       2.96
C       8.22       8.92      18.87
C       3.89       5.47      13.88
C       0.77      13.91       8.48
C       5.10       0.49       2.44
C       7.89       7.68      19.39
C       3.56       6.71      13.36
C       2.96       0.72       8.94
C       7.29      13.67       1.97
C       5.70       6.48      19.86
C       1.37       7.91      12.89
C       3.56       0.72      10.34
C       7.90      13.67       0.58
C       5.10       6.47      21.26
C       0.77       7.92      11.50
C       1.75      10.59       7.31
C       6.08       3.80       3.60
C       6.91      11.00      18.23
C       2.58       3.40      14.52
C       1.46       9.58       8.41
C       5.79       4.81       2.50
C       7.20      12.01      19.33
C       2.87       2.38      13.42
C       5.57       9.36      11.84
C       1.24       5.03      20.91
C       3.09      12.23       0.93
C       7.42       2.16       9.99
C       7.97       1.53       7.89
C       3.64      12.86       3.03
C       0.69       5.67      18.81
C       5.02       8.72      13.95
C       8.57       0.64       8.77
C       4.24      13.75       2.15
C       0.09       6.55      19.68
C       4.42       7.84      13.07
C       4.43       7.54      10.55
C       0.09       6.85       0.37
C       4.24      14.05      21.47
C       8.57       0.34      11.28
C       5.53       6.59      10.10
C       1.20       7.80       0.81
C       3.13       0.60      21.02
C       7.46      13.79      11.73
C       6.33      10.88      13.68
C       2.00       3.52      19.07
C       2.33      10.71       2.76
C       6.66       3.68       8.15
C       7.81      10.70      13.99
C       3.48       3.70      18.76
C       0.85      10.89       3.07
C       5.18       3.50       7.84
S       4.33      12.34       8.18
S       8.66       2.05       2.73
S       4.33       9.25      19.10
S       0.00       5.14      13.65
S       7.54      12.04       7.55
S       3.21       2.35       3.36
S       1.12       9.55      18.47
S       5.45       4.85      14.28
S       7.27      12.75       5.60
S       2.94       1.64       5.32
S       1.39       8.84      16.51
S       5.73       5.56      16.24
S       6.24      10.18      10.52
S       1.91       4.21       0.40
S       2.42      11.41      21.44
S       6.76       2.99      11.31
S       8.01       1.54       6.16
S       3.68      12.86       4.76
S       0.65       5.66      17.08
S       4.98       8.73      15.68
S       6.43       0.21       5.73
S       2.10      14.19       5.19
S       2.23       6.99      16.65
S       6.56       7.40      16.10
I       2.61      11.62      11.96
I       6.94       2.77      20.79
I       6.06       9.97       1.05
I       1.72       4.43       9.87
N       2.15      13.93       8.63
N       6.48       0.46       2.28
N       6.51       7.66      19.55
N       2.18       6.73      13.20
N       1.63      11.97       7.80
N       5.96       2.43       3.12
N       7.03       9.62      18.72
N       2.70       4.77      14.03
N       4.77       8.24      11.79
N       0.44       6.15      20.96
N       3.89      13.35       0.87
N       8.22       1.04      10.05
N       5.71       9.66      13.17
N       1.38       4.73      19.58
N       2.95      11.93       2.25
N       7.29       2.46       8.66
