404

Zn       7.91       1.17      21.20
Zn       7.43       4.63      21.15
Zn       6.87       8.12      21.18
Zn       0.57       7.86       8.74
Zn       0.09       4.41       8.69
Zn      14.24       0.92       8.72
Zn      14.12      10.21      16.18
Zn      14.60      13.66      16.22
Zn       0.45      17.15      16.20
Zn       6.78      16.90       3.72
Zn       7.26      13.44       3.76
Zn       7.82       9.95       3.74
H       7.14      17.16      23.14
H       6.82      14.67      23.20
H       8.19      14.57      19.10
H       8.46      17.05      19.22
H       7.71      10.19      23.10
H       8.04      12.67      23.17
H       6.48      12.82      19.13
H       6.23      10.34      19.24
H      12.20       1.57      20.35
H      14.51       2.43      20.19
H      13.25       6.12      22.04
H      10.93       5.27      22.13
H       0.15       6.96      21.09
H       2.46       7.83      21.06
H       3.99       3.83      20.79
H       1.69       2.93      20.94
H       5.54       0.35      24.58
H       4.22       0.36       1.75
H       3.78       4.64       1.43
H       5.09       4.61      24.24
H       2.25       0.55       2.63
H       1.08       0.43       4.82
H       2.64       4.28       5.89
H       3.84       4.41       3.71
H       4.92       0.70      18.29
H       3.45       0.69      16.30
H       5.12       4.49      15.08
H       6.52       4.51      17.14
H       3.32       0.36      14.24
H       1.86       0.25      12.25
H       1.72       4.53      12.04
H       3.18       4.68      14.07
H      14.51       9.95      10.69
H      14.19      12.43      10.75
H       0.84      12.54       6.64
H       1.12      10.06       6.76
H       0.36      16.92      10.64
H       0.70      14.43      10.71
H      13.85      14.28       6.67
H      13.60      16.77       6.78
H       4.85       7.46       7.90
H       7.17       6.60       7.73
H       5.90       2.91       9.58
H       3.58       3.77       9.67
H       7.53       2.07       8.64
H       9.83       1.21       8.60
H      11.36       5.21       8.33
H       9.06       6.11       8.48
H      12.91       8.68      12.13
H      11.57       8.67      14.21
H      11.12       4.39      13.89
H      12.46       4.43      11.78
H       9.59       8.48      15.08
H       8.43       8.60      17.27
H       9.99       4.75      18.35
H      11.19       4.62      16.17
H      12.29       8.33       5.83
H      10.82       8.34       3.84
H      12.49       4.55       2.62
H      13.89       4.52       4.68
H      10.69       8.67       1.78
H       9.21       8.79      24.70
H       9.06       4.51      24.50
H      10.55       4.36       1.61
H       0.18       8.12      14.23
H       0.50       5.64      14.17
H      13.85       5.53      18.28
H      13.57       8.01      18.15
H      14.33       1.15      14.28
H      13.99       3.64      14.21
H       0.84       3.79      18.24
H       1.09       1.30      18.14
H       9.84      10.61      17.02
H       7.52      11.46      17.18
H       8.79      15.16      15.34
H      11.11      14.30      15.24
H       7.16      16.00      16.28
H       4.86      16.86      16.31
H       3.33      12.86      16.59
H       5.63      11.96      16.44
H       1.78       9.39      12.79
H       3.12       9.40      10.70
H       3.57      13.68      11.02
H       2.23      13.64      13.14
H       5.10       9.59       9.83
H       6.26       9.47       7.64
H       4.70      13.31       6.56
H       3.50      13.45       8.75
H       2.40       9.73      19.08
H       3.87       9.73      21.08
H       2.20      13.52      22.29
H       0.80      13.55      20.24
H       4.00       9.40      23.13
H       5.48       9.28       0.21
H       5.63      13.56       0.41
H       4.14      13.71      23.31
H       7.55       0.91       1.77
H       7.87       3.40       1.71
H       6.50       3.50       5.82
H       6.23       1.02       5.69
H       6.98       7.88       1.82
H       6.65       5.40       1.75
H       8.21       5.25       5.78
H       8.46       7.73       5.68
H       2.49      16.50       4.56
H       0.18      15.64       4.73
H       1.44      11.95       2.88
H       3.76      12.80       2.79
H      14.54      11.11       3.82
H      12.23      10.24       3.85
H      10.70      14.24       4.13
H      13.00      15.14       3.98
H       9.15      17.71       0.33
H      10.47      17.70      23.16
H      10.91      13.43      23.48
H       9.60      13.46       0.68
H      12.44      17.52      22.29
H      13.61      17.64      20.10
H      12.05      13.79      19.02
H      10.85      13.66      21.21
H       9.77      17.37       6.63
H      11.24      17.38       8.62
H       9.57      13.58       9.84
H       8.17      13.56       7.78
H      11.37      17.71      10.68
H      12.83      17.82      12.67
H      12.97      13.54      12.87
H      11.51      13.39      10.85
C       7.37      16.53      22.28
C       7.19      15.16      22.30
C       7.47      14.41      21.15
C       7.93      15.10      20.01
C       8.10      16.48      20.08
C       7.45      10.82      22.25
C       7.63      12.20      22.28
C       7.30      12.95      21.14
C       6.78      12.28      20.03
C       6.63      10.90      20.08
C      10.02       2.86      21.38
C      11.42       3.36      21.26
C      12.44       2.57      20.72
C      13.74       3.06      20.63
C      14.07       4.35      21.09
C      13.03       5.13      21.64
C      11.73       4.65      21.71
C       0.73       4.87      21.02
C       0.99       6.26      21.05
C       2.28       6.75      21.01
C       3.37       5.88      20.91
C       3.14       4.50      20.85
C       1.84       4.01      20.92
C       4.78       6.38      20.88
C       6.23       2.46      23.04
C       5.40       2.48      24.29
C       5.16       1.29       0.05
C       4.40       1.30       1.22
C       3.90       2.50       1.75
C       4.18       3.70       1.05
C       4.89       3.69      24.79
C       3.15       2.49       3.01
C       2.35       1.37       3.34
C       1.70       1.30       4.56
C       1.81       2.34       5.49
C       2.57       3.47       5.17
C       3.23       3.54       3.94
C       1.14       2.23       6.82
C       6.71       2.57      19.02
C       5.82       2.60      17.83
C       4.95       1.53      17.58
C       4.13       1.53      16.46
C       4.18       2.59      15.53
C       5.05       3.66      15.79
C       5.85       3.68      16.93
C       3.35       2.53      14.32
C       2.97       1.29      13.78
C       2.15       1.21      12.66
C       1.68       2.38      12.05
C       2.07       3.63      12.55
C       2.90       3.70      13.67
C       0.76       2.31      10.87
C       0.02      10.57       9.82
C      14.56      11.95       9.84
C       0.13      12.69       8.69
C       0.59      12.01       7.55
C       0.75      10.63       7.62
C       0.11      16.28       9.79
C       0.29      14.91       9.82
C      14.67      14.15       8.69
C      14.15      14.82       7.57
C      14.00      16.20       7.62
C       2.68       6.17       8.92
C       4.08       5.67       8.80
C       5.10       6.46       8.26
C       6.39       5.97       8.17
C       6.72       4.68       8.64
C       5.68       3.90       9.18
C       4.38       4.38       9.26
C       8.10       4.16       8.56
C       8.36       2.78       8.59
C       9.65       2.28       8.56
C      10.74       3.16       8.45
C      10.51       4.54       8.39
C       9.21       5.03       8.46
C      12.15       2.66       8.42
C      13.60       6.57      10.59
C      12.77       6.55      11.83
C      12.50       7.75      12.51
C      11.74       7.74      13.67
C      11.25       6.53      14.21
C      11.52       5.33      13.51
C      12.26       5.34      12.33
C      10.49       6.55      15.47
C       9.70       7.67      15.80
C       9.04       7.74      17.02
C       9.16       6.70      17.95
C       9.92       5.56      17.63
C      10.57       5.49      16.40
C       8.48       6.81      19.28
C      14.08       6.47       6.56
C      13.19       6.44       5.37
C      12.32       7.51       5.12
C      11.50       7.51       4.00
C      11.55       6.45       3.07
C      12.42       5.37       3.34
C      13.22       5.36       4.47
C      10.72       6.50       1.86
C      10.34       7.75       1.32
C       9.52       7.82       0.20
C       9.02       6.65      24.50
C       9.44       5.41       0.09
C      10.27       5.34       1.21
C       8.10       6.73      23.33
C      14.67       7.50      15.09
C       0.13       6.12      15.07
C      14.56       5.38      16.23
C      14.10       6.06      17.36
C      13.94       7.44      17.30
C      14.58       1.79      15.12
C      14.40       3.16      15.10
C       0.02       3.92      16.23
C       0.54       3.25      17.35
C       0.69       1.87      17.29
C      12.01      11.90      16.00
C      10.61      12.40      16.11
C       9.59      11.61      16.66
C       8.30      12.09      16.74
C       7.97      13.39      16.28
C       9.01      14.17      15.73
C      10.31      13.69      15.66
C       6.59      13.91      16.36
C       6.33      15.29      16.33
C       5.04      15.79      16.36
C       3.95      14.91      16.46
C       4.18      13.53      16.52
C       5.48      13.04      16.45
C       2.54      15.41      16.50
C       1.09      11.50      14.33
C       1.92      11.52      13.09
C       2.19      10.32      12.40
C       2.95      10.33      11.24
C       3.44      11.54      10.71
C       3.17      12.73      11.40
C       2.43      12.72      12.58
C       4.20      11.52       9.44
C       4.99      10.40       9.12
C       5.65      10.33       7.90
C       5.53      11.37       6.96
C       4.77      12.50       7.29
C       4.12      12.58       8.52
C       6.21      11.26       5.64
C       0.61      11.60      18.35
C       1.50      11.63      19.55
C       2.37      10.56      19.79
C       3.19      10.56      20.92
C       3.14      11.62      21.84
C       2.27      12.70      21.58
C       1.47      12.71      20.44
C       3.97      11.57      23.06
C       4.35      10.32      23.60
C       5.17      10.25      24.72
C       5.67      11.42       0.41
C       5.25      12.66      24.82
C       4.42      12.73      23.70
C       6.59      11.34       1.59
C       7.32       1.54       2.64
C       7.50       2.91       2.62
C       7.22       3.66       3.77
C       6.76       2.97       4.90
C       6.59       1.59       4.84
C       7.24       7.25       2.67
C       7.06       5.87       2.64
C       7.39       5.12       3.77
C       7.91       5.79       4.89
C       8.06       7.17       4.83
C       4.67      15.21       3.54
C       3.27      14.70       3.65
C       2.25      15.50       4.20
C       0.95      15.01       4.28
C       0.62      13.72       3.82
C       1.66      12.94       3.28
C       2.96      13.41       3.20
C      13.96      13.20       3.90
C      13.70      11.81       3.87
C      12.41      11.31       3.90
C      11.32      12.19       4.01
C      11.55      13.57       4.07
C      12.85      14.06       4.00
C       9.91      11.69       4.04
C       8.46      15.61       1.87
C       9.29      15.59       0.63
C       9.53      16.78      24.86
C      10.29      16.77      23.70
C      10.79      15.56      23.17
C      10.51      14.37      23.86
C       9.80      14.38       0.13
C      11.54      15.58      21.90
C      12.34      16.70      21.57
C      12.99      16.77      20.35
C      12.88      15.73      19.42
C      12.12      14.60      19.75
C      11.46      14.53      20.97
C      13.55      15.84      18.09
C       7.98      15.50       5.89
C       8.87      15.47       7.09
C       9.74      16.54       7.33
C      10.56      16.54       8.46
C      10.51      15.48       9.38
C       9.64      14.40       9.12
C       8.84      14.39       7.98
C      11.34      15.54      10.60
C      11.72      16.78      11.14
C      12.54      16.86      12.26
C      13.01      15.69      12.87
C      12.62      14.44      12.36
C      11.79      14.37      11.25
C      13.93      15.76      14.04
N       7.82      17.18      21.19
N       6.96      10.18      21.17
N       0.47       9.92       8.73
N      14.33      16.92       8.71
N      14.22       8.15      16.19
N       0.36       1.15      16.20
N       6.87       0.89       3.73
N       7.73       7.89       3.74
O       9.80       1.65      20.97
O       9.14       3.61      21.88
O       4.98       7.60      21.27
O       5.69       5.61      20.46
O       7.02       1.45      22.92
O       6.09       3.40      22.21
O       0.37       1.21       6.97
O       1.38       3.10       7.71
O       6.75       1.44      19.65
O       7.36       3.60      19.34
O       0.63       1.15      10.33
O       0.16       3.36      10.51
O       2.45       7.38       8.51
O       1.80       5.42       9.42
O      12.35       1.44       8.82
O      13.06       3.42       8.01
O      14.39       7.58      10.46
O      13.46       5.64       9.75
O       7.71       7.83      19.43
O       8.72       5.94      20.17
O      14.12       7.59       7.19
O       0.02       5.44       6.88
O       7.97       7.89      22.78
O       7.50       5.68      22.97
O      12.24      10.69      16.40
O      12.89      12.64      15.49
O       2.34      16.63      16.10
O       1.63      14.65      16.91
O       0.30      10.49      14.45
O       1.23      12.43      15.17
O       6.98      10.24       5.48
O       5.97      12.13       4.75
O       0.57      10.47      17.73
O      14.67      12.63      18.03
O       6.72      10.18       2.13
O       7.19      12.39       1.95
O       4.89      16.42       3.94
O       5.55      14.46       3.03
O       9.71      10.47       3.64
O       9.00      12.46       4.45
O       7.67      16.62       1.99
O       8.60      14.67       2.71
O      14.32      16.86      17.94
O      13.31      14.97      17.21
O       7.94      16.63       5.27
O       7.33      14.47       5.58
O      14.06      16.92      14.59
O      14.53      14.71      14.41
