82

Zn       6.15       7.62       6.55
Zn       6.20       4.78       6.37
H       1.78       8.17       7.20
H       6.99       7.95      10.65
H       7.25       9.74       5.05
H       1.86       7.09       8.60
H       4.18       0.48       8.79
H       7.26       2.75       4.38
H       5.07       2.65       7.88
H      10.49       6.51       8.47
H      10.37       8.05       7.62
H       2.26       7.39       4.93
H       1.94       3.94       6.49
H      10.65       4.19       5.69
H       1.51       4.56       8.08
H      10.19       4.36       7.38
H       3.41      11.12       9.54
H       2.81      10.10       8.21
H       2.88       9.46       9.87
H       4.74       8.50       8.57
H       5.38       9.56       9.82
H       7.33       1.67       2.26
H       8.84       1.53       3.19
H       8.47       0.36       1.92
H       2.08       5.68       4.53
H       9.11      11.07       4.13
H       7.63      11.20       3.21
H       9.28       8.56       5.89
H      10.73       6.02       4.23
H       5.71       4.36       2.25
H       6.40       8.59       2.30
H       5.69       3.12       0.09
H       7.10       9.18      12.83
H       6.36       3.71      10.61
C       6.62       5.87       9.00
C       6.76       7.05      12.61
C       5.99       5.26       0.29
C       3.59       6.07       6.77
C       5.90       5.28       1.70
C       6.28       7.68       1.72
C       6.37       7.69       0.34
C       6.67       0.73       4.90
C       6.74       2.10       5.08
C       5.51       2.08       7.06
C       5.36       0.68       6.99
C      10.38       6.25       6.35
C       7.01      11.75       5.89
C       6.83      10.35       5.86
C       5.57      10.34       7.85
C       5.97       6.44       3.90
C       5.70      11.71       7.95
C       8.85       6.32       6.20
C       1.47       7.19       7.58
C      10.84       7.06       7.58
C       1.73       6.47       5.21
C       1.41       4.75       7.00
C      11.11       6.66       5.03
C       2.07       6.10       6.67
C       4.80       9.55       8.88
C       3.40      10.10       9.14
C       8.38      11.81       3.73
C       8.02       0.96       2.72
C      10.83       4.79       6.59
C       6.04       6.46       2.41
C       6.66       5.85      10.50
C       6.39       4.61      12.57
C       6.46       4.62      11.19
C       6.82       7.03      11.20
S      10.68       8.32       4.31
N       6.16       9.68       6.80
N       6.17       2.75       6.14
O       6.63       7.02       8.45
O       9.63       8.07       3.34
O      10.07       9.15       5.52
O       6.56       4.76       8.39
O       4.17       7.21       6.76
O       4.18       4.95       6.80
O       6.06       7.55       4.52
O       5.84       5.29       4.44
O       8.31       7.49       6.26
O       8.21       5.24       6.07
O       0.97       9.02       3.91
