38

Al       3.47       4.52       5.25
Al       0.11       4.56       5.22
H      -1.55       5.15       6.85
H       1.77       3.04       4.38
H       0.52       5.05       1.15
H       2.95       5.31       1.33
H      -2.83       3.81       9.20
H      -0.31       8.66       5.38
H      -2.74       8.52       5.07
H       3.04       0.51       5.36
C       1.79       6.94       5.25
C       1.77       4.22       7.65
C      -1.55       2.10       5.18
C      -1.58       4.90       2.86
C       1.76       3.98       9.13
C      -1.61       5.15       1.39
C       0.59       3.94       9.91
C      -0.43       5.19       0.64
C       3.87       5.34       0.75
C      -3.73       3.78       9.80
C      -1.55       0.61       5.19
C       1.83       8.44       5.23
C      -0.38      -0.17       5.11
C       0.64       9.18       5.31
C      -3.66       9.09       5.13
C       3.95      -0.08       5.29
O      -3.80       6.35       5.28
O       0.65       4.36       7.07
O      -0.43       2.70       5.15
O       4.01       4.79       3.44
O       4.01       2.66       5.19
O      -0.44       4.82       3.41
O       0.65       6.39       5.23
O      -3.79       4.29       7.10
O      -1.57       5.04       5.89
O       1.79       3.97       4.64
F      -0.63       4.13       9.35
F       0.85       0.41       4.99
