150

Zn       7.25       8.47       8.38
Zn      10.05       8.31       8.23
H      10.51       6.72      12.08
H      10.35       6.54       4.21
H      10.97       6.60      16.46
H       5.98       7.24       1.98
H       5.64       6.01       0.32
H      10.56       5.86      14.41
H       7.66      15.15       6.30
H       9.99      15.44       6.37
H      10.54       1.39       8.55
H       7.74      15.17       9.97
H       9.50      15.15      10.20
H       6.71      15.21       7.78
H       6.39       1.52       7.80
H       9.22       1.55      10.17
H       2.37       9.43       6.43
H      14.78       6.67       6.96
H       2.51       6.94       6.74
H       2.70       6.26       8.37
H      14.92       9.62      10.08
H       2.64       9.42      10.30
H      14.64      10.27       7.98
H       2.56       7.66      10.37
H       8.99       3.70       1.23
H      10.80       2.38       0.17
H      13.13       3.26       0.13
H      13.63       5.48       1.15
H      11.82       6.80       2.22
H       6.31       3.62       6.67
H       6.11       4.74       4.48
H       6.83       3.57       2.40
H       7.78       1.26       2.56
H       8.31      16.11       4.74
H      11.56      13.88       5.96
H      13.68      12.73       6.52
H      14.75      13.10       8.75
H      13.67      14.62      10.40
H      11.60      15.82       9.81
H      11.05       3.65       7.89
H      12.14       5.02       6.18
H      12.39       4.15       3.83
H      11.49       1.90       3.27
H      10.35       0.55       4.97
H      12.65      10.42       6.75
H      11.49      10.23       4.59
H      12.54       9.01       2.69
H      14.76       7.92       3.00
H       1.34       8.07       5.15
C       8.81      10.95       8.14
C       8.68       8.25      10.90
C       8.40       5.81       8.43
C       8.66       7.95       5.74
C       8.68       7.80      12.32
C       9.71       6.97      12.78
C       9.73       6.49      14.08
C       8.71       6.80      14.99
C       7.62       7.55      14.49
C       7.63       8.07      13.20
C       6.94       7.03       2.47
C       7.18       7.56       3.72
C       9.41       6.70       3.69
C       9.20       6.14       2.42
C       7.95       6.34       1.77
C       8.85       6.59      16.43
C       7.76       6.05       0.36
C       8.42       7.43       4.35
C       7.63      15.58       7.31
C      10.14      15.63       7.44
C       9.90       1.21       7.67
C       8.39       4.37       8.40
C       8.84      15.06       8.11
C       7.29       1.18       7.27
C       8.48       1.73       8.14
C       8.38       1.14       9.60
C       8.69      15.55       9.57
C       8.44       3.17       8.25
C       8.86      13.61       8.10
C       8.87      12.39       8.10
C      15.03       9.36       7.49
C      15.27       6.88       7.92
C       2.20       7.04       7.79
C      14.65       8.18       8.50
C       1.97       9.50       7.45
C       2.64       8.42       8.34
C       2.20       8.54       9.82
C      15.26       8.60       9.86
C       4.08       8.52       8.28
C      13.20       8.10       8.52
C      10.27       5.35       1.78
C      10.00       4.10       1.19
C      11.03       3.36       0.60
C      12.33       3.84       0.59
C      12.62       5.09       1.17
C      11.60       5.83       1.76
C       7.20       1.82       5.88
C       6.65       3.11       5.77
C       6.53       3.74       4.53
C       6.94       3.08       3.37
C       7.46       1.79       3.46
C       7.59       1.17       4.70
C      11.42      14.93       7.84
C      12.03      14.05       6.94
C      13.22      13.39       7.26
C      13.81      13.59       8.50
C      13.21      14.46       9.42
C      12.03      15.12       9.09
C      10.57       2.01       6.56
C      11.12       3.26       6.87
C      11.75       4.04       5.90
C      11.89       3.56       4.60
C      11.38       2.30       4.28
C      10.73       1.53       5.25
C      14.37       9.25       6.13
C      13.12       9.86       5.93
C      12.46       9.77       4.71
C      13.05       9.07       3.65
C      14.29       8.46       3.83
C      14.95       8.54       5.06
N       5.24       8.58       8.28
N      12.06       8.14       8.38
N       7.17       1.69      10.34
N       6.07       8.36       4.30
N      14.89       5.68       8.80
N      14.72       7.82      11.07
N       2.43      10.89       7.93
N       6.51       7.90      15.40
N       6.51       8.96      12.78
O       7.65      10.45       8.24
O       9.92      10.32       8.08
O       7.54       8.46      10.38
O       9.81       8.33      10.32
O       7.28       6.40       8.51
O       9.56       6.34       8.35
O       7.60       8.18       6.40
O       9.85       8.07       6.15
O       7.38       2.58      11.16
O       6.06       1.22      10.06
O       5.05       7.74       4.63
O       6.21       9.58       4.32
O      13.80       5.16       8.54
O      15.67       5.35       9.70
O      15.39       7.88      12.09
O      13.63       7.25      10.94
O       1.81      11.40       8.87
O       3.41      11.36       7.37
O       6.25       9.10      15.55
O       5.93       6.96      15.96
O       5.39       8.43      12.68
O       6.79      10.14      12.60
