38

Al       3.37       2.19      10.39
Al       6.72       2.19      10.39
H       3.84       6.59       0.04
H       7.19       6.25      10.37
H       6.25      11.43       3.97
H       2.90       1.36       6.43
H       9.60       6.25      10.37
H       6.25       6.59       0.04
H       7.19       1.37       6.43
H      10.53      11.43       3.97
H       8.40       3.31       9.01
H       5.05       9.54       1.39
C       2.91       6.02       0.02
C       6.26       6.81      10.38
C       7.18      11.55       4.52
C       3.83       1.24       5.88
C      10.53       6.81      10.38
C       7.18       6.02       0.02
C       6.26       1.24       5.88
C       9.60      11.55       4.52
C       8.39       6.72       0.04
C       5.05       6.11      10.36
C       8.39       8.22       0.08
C       5.05       4.62      10.31
C       8.39      11.39       3.84
C       5.05       1.40       6.56
C       8.39      11.06       2.38
C       5.05       1.75       8.01
O       2.83       8.80       0.10
O       6.18       4.04      10.29
O       7.26      10.93       1.81
O       3.91       1.90       8.58
O       3.91       4.04      10.29
O       7.26       8.80       0.10
O       6.18       1.90       8.57
O       9.53      10.93       1.82
O       8.39       2.70       9.76
O       5.05      10.13       0.62
