60

Zn       5.81       5.13       5.61
Zn       3.05       5.08       5.47
H       2.22       5.49       9.72
H       2.69       0.90       6.52
H       0.89       3.03       7.90
H       0.77       2.03       6.43
H       7.91       5.72       1.48
H       6.68       9.15       3.47
H       7.42       4.01       1.48
H       7.56       9.34       5.02
H       7.55       4.86      10.01
H       6.84       0.60       3.20
H       7.01       3.15       9.99
H       7.76       0.77       4.71
H       0.83       6.80       4.32
H       8.03       6.85       4.40
H       8.07       3.14       8.02
H       7.96       2.13       6.55
H       2.32       6.88       2.31
H       2.29       8.35       7.32
C       4.53       2.52       5.38
C       4.34       4.92       8.13
C       6.83       4.15      10.43
C       6.92       0.25       4.24
C       0.27       4.16       6.10
C       0.27       6.03       4.85
C       8.59       6.07       4.90
C       8.59       4.20       6.17
C       8.49       2.96       7.02
C       0.37       2.90       6.94
C       4.36       7.71       5.74
C       4.55       5.47       2.96
C       5.38       4.58      10.43
C       5.62       0.24       5.01
C       4.29       4.89       9.62
C       4.57       1.03       5.48
C       3.09       5.20      10.30
C       3.52       0.34       6.10
C       3.51       6.01       0.68
C       3.30      10.00       6.24
C       4.63       5.66       1.49
C       4.38       9.21       5.74
C       5.82       5.40       0.81
C       5.42       9.90       5.15
C       7.26       4.98       0.99
C       6.74       9.73       4.41
C       2.23       6.45       1.29
C       2.15       9.39       6.96
N       1.00       5.06       5.46
N       7.86       5.14       5.58
O       5.62       3.13       5.12
O       5.47       4.67       7.58
O       3.40       3.08       5.60
O       3.26       5.21       7.52
O       5.46       7.13       6.03
O       5.62       5.66       3.62
O       3.27       7.15       5.40
O       3.43       5.09       3.45
O       1.14       6.41       0.71
O       1.10       9.99       7.17
