150

Zn       8.08       1.18      14.44
Zn       7.89      15.29      14.40
Zn       1.17       8.36       0.03
Zn      14.80       8.11      28.80
H       5.06       2.09      11.47
H       1.71      13.09      24.29
H       2.98      14.47       9.78
H      13.00       2.00      19.06
H      11.02      14.49      11.54
H       4.96       1.98      17.31
H       2.03       5.48       3.14
H      13.94      10.99      25.69
H      14.06      11.48       2.74
H       1.91       4.99      26.09
H       1.85      11.57       2.83
H      10.91      14.38      17.37
H      14.12       4.91      26.01
H      14.26       5.28       2.91
H       1.71      11.20      25.94
H       4.84      14.46      11.45
H      11.14       2.01      17.38
H      11.03       2.10      11.42
H       4.93      14.37      17.41
H       3.21       2.11       9.80
H      12.77      14.36      19.04
H       3.87       4.04       3.47
H      12.88      14.53       9.86
H       3.70       5.20       4.81
H       4.57       3.67       5.06
H       2.33       3.48       6.09
H       2.48       2.36       4.76
H      12.28      11.27      24.02
H      12.10      12.42      25.35
H      11.40      12.79      23.77
H      13.49      14.11      24.07
H      13.65      12.99      22.74
H      11.29       3.82       9.80
H       3.10       1.94      18.98
H      12.48       3.94      11.12
H      12.82       4.69       9.55
H      14.13       2.59       9.75
H      12.98       2.48       8.44
H       3.48      12.53      17.70
H       4.67      12.64      19.02
H       3.14      11.78      19.27
H       2.99      13.99      20.38
H       1.84      13.88      19.08
H      13.98      13.38       4.37
H       1.99       3.09      24.46
H       1.79      13.46       4.46
H      14.18       3.01      24.38
H      14.26       3.39       4.55
C       9.73      16.54      16.25
C       0.78      12.61      24.60
C      15.19       4.90       3.33
C       0.78      11.57      25.51
C       3.39      15.40      10.15
C      12.58       1.07      18.69
C       4.43      15.40      11.08
C      11.55       1.07      17.76
C      12.52       1.24      10.12
C       3.45      15.23      18.72
C      11.50       1.19      11.06
C       6.24      -0.07      12.59
C       4.47      15.28      17.78
C      16.33       0.03       7.15
C      -0.36      16.44      21.68
C       9.95      -0.05      12.59
C       6.03      16.52      16.24
C       3.07      -0.04       9.68
C      12.90      16.52      19.15
C       5.16      -0.06      11.56
C      10.81      16.53      17.28
C      13.11       0.01       9.70
C      14.98      11.92       3.13
C       2.87      16.46      19.14
C      11.03      -0.03      11.57
C       4.94      16.50      17.27
C      16.40       3.37       4.77
C      -0.43      13.10      24.07
C      -0.10       5.48       2.93
C      16.07      10.99      25.91
C      16.13      13.54       4.53
C      -0.16       2.93      24.31
C      16.21      11.41       2.70
C       0.99       4.55      25.71
C      -0.24       5.06      26.14
C       1.03      -0.02       8.02
C      14.94      16.49      20.82
C      16.36       1.27       6.35
C      -0.38      15.20      22.49
C       3.61       1.17      10.16
C      12.36      15.30      18.68
C      15.14       0.01       8.02
C       0.83      16.46      20.81
C      16.11      15.54       6.23
C       0.87      13.02       4.08
C      -0.14       0.93      22.60
C       1.99      -0.03       8.77
C      13.99      16.50      20.07
C      16.11      14.62       5.45
C      -0.13       1.85      23.39
C      16.38       2.26       5.64
C      -0.41      14.21      23.20
C      14.19       0.01       8.78
C       1.78      16.46      20.05
C      16.26      10.28       1.72
C      15.11       3.45      24.75
C      -0.28       6.19      27.11
C      -0.09       6.56       1.90
C      16.06       9.91      26.93
C       4.65       1.16      11.09
C      11.33      15.31      17.75
C      12.42      15.46      10.21
C       3.56       1.01      18.64
C      11.39      15.43      11.13
C       4.59       1.04      17.71
C       1.14       3.97       4.39
C       0.90      11.97       3.18
C      14.83      12.50      24.44
C       1.11       5.01       3.47
C      14.86      11.46      25.36
C      14.94      12.98       4.04
C       1.04       3.50      24.80
C       2.42       3.43       4.99
C       3.71       4.13       4.56
C      13.55      13.03      23.84
C      12.27      12.34      24.27
C      13.04       2.54       9.54
C      15.07       4.50      25.66
C      12.37       3.81      10.03
C       2.92      13.93      19.28
C       3.59      12.66      18.79
C      15.19       3.86       4.24
O       9.51       1.01      15.86
O      15.06       6.61      27.47
O      15.28       6.96       1.46
O       0.70       9.51      27.38
O       1.05       7.01       1.53
O      14.92       9.46      27.31
O      15.14       9.81       1.31
O       0.84       6.66      27.53
O       6.46      15.46      12.98
O       9.32      15.48      12.99
O       6.65       0.99      15.85
O       9.51       1.08      13.01
O       6.46      15.39      15.82
O       9.31      15.40      15.83
O       6.66       1.07      13.00
O       0.91       9.86       1.37
