72

Zn       5.16       8.48       8.45
Zn       5.18       5.64       8.43
H       9.47       5.41       7.64
H       6.16       9.00       1.73
H       6.61       7.77      15.37
H       9.12       8.93      10.04
H       6.71       4.37       6.59
H       2.98       5.51       5.42
H       3.26       5.81       1.74
H       3.41      10.35       9.68
H       3.60       1.30      10.57
H       3.72       3.77      10.09
H       6.66       0.75       7.56
H       6.24      13.46       7.16
H       0.66       8.04       8.07
H       6.41       8.75       4.22
C       4.92       7.14      11.04
C       4.98       7.16       4.36
C       4.08       6.32       3.67
C       2.58       7.05       8.27
C       3.96       6.46       2.28
C       5.98       2.74       7.93
C       5.97       1.37       8.13
C       5.09       0.83       9.07
C       4.28       1.69       9.81
C       4.34       3.06       9.55
C       3.75      12.44       9.24
C       3.66       6.56      13.17
C       4.03      11.08       9.16
C       4.57      13.33       8.51
C       5.86      11.43       7.78
C       5.18       7.05       5.84
C       5.62      12.79       7.75
C       7.74       7.03       8.71
C       9.99       6.14       8.27
C       9.23       7.02       8.96
C       0.24       6.03       8.31
C       1.10       7.05       8.20
C       3.59       6.39      14.56
C       4.81       7.09      12.54
C       9.72       7.99       9.97
C       6.91       3.32       6.90
C       3.19       5.33       4.34
C       4.70       6.80      15.35
C       5.80       7.42      14.73
C       5.86       7.54      13.35
C       5.59       8.26       2.29
C       5.72       8.12       3.66
C       4.69       7.43       1.59
Br       2.01       5.74      15.35
Br       2.19       6.12      12.05
Br       2.25      12.97      10.25
Br       7.34      10.76       6.82
Br       0.74       4.19       8.47
Br       7.43       8.29      12.59
N       4.86       6.69      16.75
N       4.46       7.50       0.19
N       5.16       3.57       8.61
N       5.06      -0.57       9.35
N       4.45      14.73       8.35
N       5.07      10.58       8.46
O       4.73       8.26      10.47
O       7.82       2.66       6.42
O       2.67       4.39       3.75
O       5.24       6.05      10.48
O       3.14       8.19       8.11
O       3.18       5.95       8.50
O       5.46       8.14       6.45
O       5.06       5.90       6.38
O       7.15       8.14       8.89
O       7.20       5.93       8.37
O      -0.54       7.79      10.73
