100

Al       1.90       6.55       5.73
Al       4.77      19.75      17.11
Al       5.23       6.60       5.69
Al       1.44      19.69      17.16
H       4.42      14.07      13.74
H       2.25      12.22       9.11
H       1.09      25.37      20.53
H       5.58       0.93       2.31
H       5.04      11.01      10.69
H       1.62      15.28      12.15
H       1.71       2.14       0.73
H       4.95      24.16      22.12
H       3.53       8.31       5.88
H       3.13      17.98      16.96
H       0.20       4.84       5.54
H       6.47      21.46      17.31
C       3.57       4.72       4.16
C       3.10      21.57      18.69
C       0.24       8.42       7.27
C       6.43      17.87      15.58
C       3.59       5.22       7.72
C       3.08      21.07      15.13
C       0.25       7.93       3.71
C       6.41      18.37      19.14
C       6.35      17.58      20.35
C       0.31       8.71       2.50
C       3.02      21.86      13.92
C       3.64       4.44       8.93
C       6.15      16.07      22.47
C       0.52      10.22       0.38
C       2.81      23.37      11.80
C       3.85       2.92      11.05
C       0.40       9.41       1.50
C       6.26      16.88      21.34
C       3.73       3.73       9.92
C       2.93      22.56      12.93
C       6.40      16.72      14.63
C       0.26       9.58       8.22
C       3.07      22.72      19.64
C       3.59       3.57       3.20
C       0.78      16.45      13.72
C       5.88       9.84       9.13
C       4.11      22.99      20.55
C       2.55       3.30       2.29
C       0.78      15.39      12.82
C       5.89      10.90      10.02
C       4.11      24.05      21.45
C       2.56       2.25       1.40
C       6.34      14.51      12.81
C       0.32      11.78      10.04
C       3.01      24.93      21.47
C       3.66       1.36       1.38
C       5.28      14.73      13.70
C       1.39      11.56       9.14
C       1.95      24.71      20.57
C       4.72       1.59       2.28
C       5.33      15.81      14.57
C       1.33      10.49       8.27
C       2.00      23.63      19.70
C       4.67       2.66       3.15
C       6.24      13.37      11.91
C       0.43      12.92      10.94
C       2.91      26.07      22.37
C       3.76       0.23       0.48
O       4.71       5.53       7.22
O       1.95      20.76      15.63
O       1.38       7.62       4.20
O       5.28      18.68      18.64
O       2.43       5.11       4.57
O       4.23      21.18      18.28
O       5.77       8.03       6.85
O       0.90      18.26      16.00
O       2.43       5.49       7.27
O       4.24      20.80      15.58
O       5.76       7.65       4.16
O       0.90      18.64      18.69
O       1.36       7.93       6.94
O       5.30      18.36      15.90
O       4.69       5.21       4.48
O       1.97      21.08      18.37
O       3.55       7.37       5.63
O       3.11      18.92      17.22
O       0.22       5.77       5.79
O       6.44      20.52      17.06
F       1.78      10.58       0.00
F       4.89      15.71      22.84
F       5.11      23.49      11.42
F       1.55       2.81      11.43
F       1.85      17.28      13.67
F       4.82       9.01       9.18
F       5.18      22.16      20.60
F       1.48       4.13       2.25
F       2.37      10.35       7.41
F       4.29      15.94      15.44
F       5.70       2.79       4.01
F       0.96      23.50      18.83
F       1.58      13.64      10.78
F       5.09      12.65      12.07
F       4.91      20.43       0.64
F       1.75       5.86      22.20
