180

Al       0.25      15.23      11.78
Al       3.24       5.08      23.57
Al       3.73      15.23      11.79
Al       6.72       5.08       0.00
H       1.66       9.54       8.22
H       1.82      10.77      20.01
H       5.14       0.61      15.35
H       5.30      19.69       3.56
H       2.92       8.05       6.18
H       0.56      12.25      17.96
H       6.40       2.10      17.39
H       4.04      18.21       5.61
H       0.08      10.59       4.10
H       3.40       9.71      15.89
H       3.56      19.87      19.47
H       6.88       0.44       7.68
H       6.51       9.34       5.22
H       3.94      10.97      17.01
H       3.03       0.82      18.35
H       0.45      19.49       6.56
H       3.82      11.45       6.06
H       6.62       8.85      17.84
H       0.34      19.00      17.51
H       3.14       1.30       5.73
H       3.28       9.84       7.60
H       0.21      10.46      19.38
H       6.76       0.31      15.97
H       3.69      20.00       4.19
H       5.47      13.48      12.02
H       4.98       6.83       0.24
H       1.99      16.98      11.55
H       1.50       3.33      23.34
C       5.47      16.71       9.94
C       4.98       3.60      21.72
C       1.99      13.75      13.63
C       1.50       6.56       1.85
C       5.48      16.83      13.54
C       4.97       3.48       1.75
C       2.00      13.63      10.03
C       1.49       6.68      21.82
C       0.37      11.10       6.17
C       3.12       9.21      17.96
C       3.85      19.36      17.40
C       6.60       0.95       5.61
C       2.83      11.45       5.60
C       0.65       8.86      17.38
C       6.32      19.01      17.97
C       4.13       1.30       6.19
C       2.76      10.34       4.52
C       0.72       9.97      16.31
C       6.24      20.12      19.05
C       4.20       0.18       7.26
C       1.51       7.46       2.97
C       1.97      12.85      14.76
C       4.99       2.69      20.60
C       5.46      17.61       8.81
C       1.81      11.18       6.76
C       1.68       9.13      18.54
C       5.29      19.28      16.81
C       5.16       1.02       5.03
C       0.32      10.08       5.04
C       3.16      10.22      16.83
C       3.81       0.07      18.53
C       6.64      20.24       6.74
C       1.64       9.30       4.89
C       1.84      11.01      16.67
C       5.13       0.86      18.68
C       5.32      19.45       6.90
C       2.02       8.67       6.27
C       1.46      11.64      18.05
C       5.50       1.48      17.31
C       4.94      18.82       5.52
C       2.22       9.77       7.31
C       1.26      10.54      19.10
C       5.70       0.38      16.26
C       4.74      19.92       4.47
C       1.53       8.29       3.86
C       1.95      12.02      15.64
C       5.01       1.87      19.72
C       5.43      18.44       7.93
C       1.93      12.11       7.86
C       1.55       8.19      19.64
C       5.42      18.35      15.72
C       5.03       1.96       3.93
C       1.99      12.77       8.87
C       1.49       7.53      20.66
C       5.47      17.69      14.70
C       4.97       2.62       2.92
N       6.32      10.73       7.32
N       4.13       9.58      19.11
N       2.83      19.73      16.25
N       0.65       0.58       4.47
N       6.73      12.47       5.70
N       3.71       7.83      17.49
N       3.25      17.99      17.87
N       0.23       2.32       6.08
N       2.67      12.88       5.06
N       0.82       7.43      16.85
N       6.15      17.58      18.51
N       4.30       2.72       6.73
N       2.65      10.90       3.06
N       0.83       9.40      14.84
N       6.13      19.56      20.51
N       4.31       0.75       8.73
N       4.08       9.53       4.47
N       6.37      10.77      16.26
N       0.59       0.62      19.10
N       2.89      19.69       7.31
N       1.00       7.62       6.75
N       2.48      12.69      18.54
N       4.48       2.54      16.82
N       5.96      17.77       5.03
O       4.33      16.51      13.09
O       6.11       3.79       1.31
O       0.85      13.95      10.48
O       2.63       6.36      22.27
O       6.62      16.38      10.38
O       3.83       3.93      22.16
O       3.13      14.08      13.19
O       0.35       6.23       1.41
O       6.63      16.50      13.10
O       3.82       3.80       1.31
O       3.14      13.96      10.48
O       0.34       6.35      22.26
O       0.84      14.08      13.19
O       2.64       6.22       1.41
O       4.32      16.38      10.38
O       6.13       3.93      22.17
O       5.47      14.43      11.83
O       4.98       5.88       0.04
O       1.99      16.03      11.74
O       1.50       4.28      23.53
O       6.42       9.60       7.78
O       5.49      11.57       7.66
O       4.03      10.71      19.57
O       4.96       8.73      19.45
O       2.94       0.56      15.79
O       2.01      18.89      15.91
O       0.54      19.75       4.00
O       1.48       1.42       4.13
O       5.87      12.39       4.83
O       0.16      13.49       6.27
O       4.58       7.92      16.62
O       3.33       6.82      18.05
O       2.38      18.07      18.74
O       3.64      16.97      17.31
O       1.10       2.24       6.95
O       6.81       3.33       5.52
O       1.85      13.06       4.15
O       3.32      13.74       5.64
O       1.63       7.25      15.94
O       0.16       6.57      17.43
O       5.33      17.40      19.42
O       6.81      16.72      17.93
O       5.11       2.90       7.64
O       3.64       3.58       6.15
O       3.63      11.56       2.71
O       1.66      10.62       2.39
O       6.82       8.75      14.50
O       1.82       9.69      14.18
O       0.15      18.90      20.86
O       5.15      19.84      21.18
O       3.34       1.40       9.07
O       5.30       0.46       9.39
O       4.59       9.33       5.58
O       4.43       9.04       3.41
O       5.86      10.97      17.37
O       6.02      11.26      15.20
O       1.11       0.82      17.99
O       0.95       1.11      20.16
O       2.37      19.49       6.20
O       2.53      19.19       8.37
O       1.22       7.19       7.89
O       0.11       7.24       5.99
O       2.26      13.11      19.67
O       3.37      13.07      17.77
O       4.70       2.96      15.68
O       3.60       2.92      17.58
O       5.74      17.35       3.90
O       6.85      17.39       5.80
