62

Al       9.79       7.28       7.50
Al       6.48       7.28       7.50
H       4.84       6.39       5.98
H       8.12       8.16       9.02
H       6.15       6.85       0.93
H       6.82       7.69      14.07
H       9.36       6.57      11.53
H       9.26       6.54      13.98
H       3.61       8.00       3.47
H       3.70       8.02       1.02
H       9.59      11.25       8.41
H       8.51      13.37       9.18
H       6.74      11.36       6.36
H       7.75      13.56       5.72
H       3.38       3.30       6.59
H       4.46       1.18       5.82
H       6.23       3.19       8.64
H       5.21       1.00       9.29
C       8.08       4.87       7.60
C       8.19       7.41       5.09
C       4.89       9.68       7.41
C       4.77       7.14       9.91
C       8.17       7.44       3.60
C       4.80       7.12      11.40
C       7.04       7.13       2.83
C       7.07       7.12       1.44
C       5.92       7.42      12.18
C       5.90       7.42      13.56
C      10.25       6.80      12.11
C      10.20       6.80      13.50
C       2.72       7.76       2.89
C       2.76       7.76       1.51
C       8.25       7.43       0.74
C       4.72       7.12      14.26
C      10.40      11.84       7.99
C      10.38      13.24       8.07
C       9.32      13.95       8.73
C       5.91      11.90       6.82
C       5.90      13.30       6.82
C       6.94      14.08       6.22
C       2.57       2.71       7.02
C       2.59       1.31       6.94
C       3.65       0.60       6.27
C       7.06       2.65       8.19
C       7.07       1.25       8.18
C       6.03       0.47       8.79
C       4.85      11.18       7.39
C       4.82      13.99       7.47
C       8.11       3.38       7.62
C       8.15       0.57       7.53
O       9.17       5.47       7.32
O       7.10       7.15       5.70
O       6.01       9.12       7.18
O       3.65       6.93       9.34
O       3.80       9.08       7.68
O       5.86       7.40       9.31
O       6.96       5.43       7.83
O       9.32       7.62       5.66
O       4.83       6.70       6.90
O       8.14       7.85       8.10
F       5.85       6.80       3.40
F       7.12       7.74      11.61
