53

Al      -0.00      -3.38       5.85
H       3.34       1.13       1.23
H       0.84       2.88       4.26
H       0.84       1.63       0.37
H       3.34       5.12       0.37
H       0.84       5.62       1.23
H       3.34       3.87       4.26
H       0.17      -0.18       5.89
H       4.17       1.47       5.90
H       4.00      11.69       3.05
H       0.00      12.50       1.62
H       0.17       8.49       8.60
H       4.17       7.65      10.02
H       4.00      -1.74       8.60
H       0.00      -0.90      10.02
H       0.17       8.57       3.05
H       4.17       7.75       1.62
H       4.01       6.93       5.89
H       0.00       5.28       5.90
C       2.09      -3.38       7.92
C       2.09       8.33       4.81
C       2.09      -1.58       4.81
C       2.82      -0.17       2.86
C       2.78       1.04       2.16
C       2.09       2.15       2.66
C       1.39       2.03       3.87
C       1.35       0.81       4.56
C       2.09      -0.29       4.07
C       1.39      -4.36      11.52
C       1.35      -4.36      10.12
C       2.09      -3.38       9.41
C       2.82      -2.40      10.12
C       2.78      -2.39      11.52
C       2.09       3.38       0.53
C       1.39       5.71       2.16
C       1.35       6.92       2.86
C       2.09       7.04       4.07
C       2.82       5.94       4.56
C       2.78       4.72       3.87
C       2.09       4.61       2.66
N       2.09       3.38       1.95
N       0.65       0.71       5.76
N       3.52      -1.26       2.35
N       0.65      -5.34       9.43
N       3.52      -1.41       9.43
N       0.65       8.01       2.35
N       3.52       6.04       5.76
O       1.10      -2.38       4.64
O       1.10      -2.83       7.32
O       1.10       8.58       5.59
O       3.07      -1.83       5.59
O       3.07       9.13       4.64
O       3.07      -3.93       7.32
