154

Zn       6.67       8.93       7.55
Zn      24.59      11.34       7.50
Zn      20.38      17.83       7.50
Zn      10.87       2.44       7.55
Zn       6.75       4.38      13.94
Zn      24.51      15.89       1.11
H      14.70       5.51       6.88
H      16.56      14.76       8.17
H      20.23       9.09       8.17
H      11.03      11.17       6.88
H       6.90      12.46       3.51
H      24.36       7.81      11.55
H      17.07      19.05      11.54
H      14.19       1.21       3.51
H      13.74      16.06      13.92
H      17.52       4.21       1.13
H      10.99      14.28       1.13
H      20.26       5.99      13.92
H      12.66      14.27      12.71
H      18.60       6.00       2.34
H      13.06      14.53       2.34
H      18.19       5.74      12.71
H      21.71       8.35       4.61
H       9.54      11.92      10.44
H      14.78       3.85      10.44
H      16.48      16.42       4.61
C       6.39      10.39       5.04
C      24.87       9.88      10.01
C      19.17      18.68      10.01
C      12.09       1.59       5.04
C      17.99      11.67       7.92
C      13.26       8.60       7.13
C      14.63       6.58       7.00
C      16.62      13.69       8.05
C      19.28       9.59       8.05
C      11.98      10.68       7.00
C       4.27       8.71       0.76
C      26.99      11.56      14.29
C      21.57      19.93      14.29
C       9.69       0.34       0.76
C      20.58       7.66       1.44
C      10.68      12.60      13.61
C      15.87       4.61      13.61
C      15.39      15.66       1.44
C      19.74       6.79       0.67
C      11.52      13.48      14.38
C      17.00       5.02      14.38
C      14.25      15.25       0.67
C       5.68      10.77       0.81
C      25.58       9.50      14.24
C      19.11      19.48      14.24
C      12.15       0.79       0.81
C       6.23      11.83       1.57
C      25.02       8.43      13.48
C      17.91      19.41      13.48
C      13.35       0.86       1.57
C       6.40      11.68       2.94
C      24.86       8.59      12.11
C      17.99      19.19      12.11
C      13.27       1.08       2.94
C       5.96      10.54       3.62
C      25.30       9.73      11.43
C      19.21      19.13      11.43
C      12.05       1.14       3.62
C      22.20       9.58       2.91
C       9.06      10.69      12.14
C      13.45       3.91      12.14
C      17.80      16.36       2.91
C       9.42       9.07       7.08
C      21.83      11.20       7.97
C      19.13      15.36       7.97
C      12.12       4.91       7.08
C       5.03       9.69       1.49
C      26.23      10.58      13.56
C      20.36      19.63      13.56
C      10.90       0.64       1.49
C      13.08      15.37      14.45
C      18.18       4.90       0.60
C      11.89      14.59       0.60
C      19.37       5.67      14.45
C      12.44      14.37      13.76
C      18.81       5.89       1.29
C      13.06      14.77       1.29
C      18.20       5.50      13.76
C      21.56       8.48       3.55
C       9.69      11.78      11.50
C      14.71       4.04      11.50
C      16.54      16.23       3.55
C      20.81       7.57       2.86
C      10.45      12.70      12.19
C      15.85       4.36      12.19
C      15.40      15.91       2.86
C      14.71       0.65       0.98
C      16.55      19.62      14.07
C      24.66       7.11      14.07
C       6.59      13.16       0.98
C      13.11      11.44       7.22
C      18.14       8.83       7.83
C      15.46      12.96       7.83
C      15.79       7.30       7.22
C      13.06      12.88       7.35
C      18.20       7.39       7.70
C      14.17      13.60       7.70
C      17.09       6.67       7.35
C      15.54      11.54       7.66
C      15.72       8.73       7.39
C      14.38      10.79       7.39
C      16.88       9.48       7.66
C      16.81      10.90       7.77
C      14.45       9.37       7.28
C      19.26      11.01       7.99
C      11.99       9.26       7.06
C      13.35       7.17       7.06
C      17.91      13.10       7.99
C      20.46      11.79       7.86
C      10.80       8.48       7.19
C      12.14       6.40       7.19
C      19.11      13.87       7.86
C      20.31      13.17       7.58
C      10.95       7.10       7.48
Br      17.20       4.80       7.04
Br      14.05      15.47       8.01
Br      19.86       6.52       8.01
Br      11.40      13.75       7.04
Br      21.62      14.02       6.48
Br       9.63       6.25       8.57
Br      20.30       6.10       4.00
Br      10.95      14.17      11.05
Br      17.41       4.22      11.05
Br      13.85      16.05       4.00
O       6.19       9.26       5.62
O      25.07      11.00       9.43
O      20.27      18.40       9.43
O      10.98       1.87       5.62
O       9.28      10.34       7.12
O      21.97       9.93       7.93
O      18.03      16.01       7.93
O      13.23       4.26       7.12
O       8.46       8.25       6.92
O      22.80      12.01       8.13
O      20.27      15.92       8.13
O      10.99       4.35       6.92
O      24.00      11.39       5.59
O       7.26       8.87       9.46
O      11.06       3.00       9.46
O      20.20      17.26       5.59
O      22.05       4.93      14.83
O       9.20      15.33       0.22
O      17.75       2.15       0.22
O      13.50      18.12      14.83
O      24.06       6.27      13.30
O       7.19      14.00       1.75
O      15.71       0.86       1.75
O      15.55      19.41      13.30
