266

Tb       1.54       9.85       5.69
Tb       9.37      19.71      11.38
H      10.05       9.55       9.36
H      10.05      13.18       4.12
H      10.05       6.83       3.59
H       0.86      20.01       7.71
H       0.86      16.38      12.95
H       0.86      22.73      13.48
H       9.52       9.08      11.73
H       9.52      15.47       3.34
H       9.52       5.01       2.00
H       1.39      20.48       5.34
H       1.39      14.09      13.73
H       1.39      24.56      15.07
H       7.43      10.00      12.75
H       7.43      15.90       2.04
H       7.43       3.67       2.28
H       3.48      19.57       4.32
H       3.48      13.67      15.03
H       3.48      25.89      14.79
H       5.85      11.32      11.34
H       5.85      14.01       1.60
H       5.85       4.23       4.13
H       5.07      18.24       5.73
H       5.07      15.55      15.47
H       5.07      25.33      12.93
H       6.35      11.72       8.95
H       6.35      11.74       2.44
H       6.35       6.10       5.68
H       4.56      17.84       8.12
H       4.56      17.82      14.63
H       4.56      23.47      11.39
H       9.25      10.20       7.14
H       9.25      10.94       4.67
H       9.25       8.43       5.26
H       1.66      19.37       9.93
H       1.66      18.62      12.40
H       1.66      21.14      11.81
H       7.63      10.93       6.95
H       7.63      10.41       4.13
H       7.63       8.23       5.99
H       3.28      18.64      10.12
H       3.28      19.16      12.94
H       3.28      21.33      11.08
H       1.84      13.14       6.02
H       1.84       8.50       2.68
H       1.84       7.92       8.37
H       9.08      16.43      11.05
H       9.08      21.06      14.39
H       9.08      21.64       8.70
H       2.82      15.39       5.62
H       2.82       7.03       0.93
H       2.82       7.15      10.52
H       8.10      14.18      11.45
H       8.10      22.54      16.14
H       8.10      22.42       6.55
H       1.41      17.42       6.01
H       1.41      16.21      16.05
H       1.41      25.50      12.08
H       9.50      12.15      11.06
H       9.50      13.36       1.02
H       9.50       4.06       4.99
H      10.03      17.19       6.91
H      10.03      17.10      15.80
H      10.03      24.84      11.44
H       0.88      12.37      10.16
H       0.88      12.47       1.27
H       0.88       4.72       5.63
H       7.81      16.39       6.49
H       7.81      17.14      16.70
H       7.81      25.60      10.94
H       3.11      13.18      10.57
H       3.11      12.42       0.37
H       3.11       3.96       6.13
H       8.29      16.71       8.19
H       8.29      18.44      15.57
H       8.29      23.97      10.38
H       2.63      12.85       8.88
H       2.63      11.12       1.50
H       2.63       5.59       6.69
H       5.44      13.59       5.28
H       5.44       7.63       2.66
H       5.44       8.34       9.13
H       5.48      15.97      11.79
H       5.48      21.94      14.41
H       5.48      21.22       7.94
H       7.17      13.67       5.69
H       7.16       7.95       2.39
H       7.17       7.95       8.99
H       3.75      15.90      11.38
H       3.75      21.62      14.68
H       3.75      21.62       8.08
H       6.33      15.12       5.17
H       6.33       6.77       1.39
H       6.33       7.67      10.51
H       4.58      14.44      11.90
H       4.58      22.79      15.68
H       4.58      21.89       6.56
H       6.83      16.29       9.93
H       6.83      20.16      15.06
H       6.83      22.67       9.15
H       4.09      13.27       7.14
H       4.09       9.40       2.01
H       4.09       6.89       7.92
H       8.73      13.07       7.80
H       8.73      10.08       1.85
H       8.73       6.42       7.42
H       2.18      16.50       9.27
H       2.18      19.49      15.22
H       2.18      23.14       9.65
C       9.12       9.92       9.79
C       9.12      13.37       3.58
C       9.12       6.27       3.70
C       1.79      19.64       7.28
C       1.79      16.19      13.49
C       1.79      23.29      13.37
C       8.83       9.67      11.13
C       8.83      14.66       3.13
C       8.83       5.23       2.81
C       2.09      19.89       5.94
C       2.09      14.91      13.94
C       2.09      24.33      14.26
C       7.66      10.18      11.70
C       7.66      14.89       2.40
C       7.66       4.49       2.97
C       3.26      19.38       5.37
C       3.26      14.67      14.67
C       3.26      25.08      14.10
C       6.77      10.93      10.91
C       6.77      13.84       2.15
C       6.77       4.80       4.01
C       4.14      18.63       6.16
C       4.14      15.73      14.92
C       4.14      24.77      13.06
C       7.06      11.16       9.56
C       7.06      12.56       2.62
C       7.06       5.85       4.88
C       3.86      18.41       7.51
C       3.86      17.01      14.45
C       3.86      23.72      12.19
C       8.24      10.66       8.99
C       8.24      12.31       3.34
C       8.24       6.59       4.73
C       2.68      18.91       8.08
C       2.68      17.25      13.73
C       2.68      22.97      12.33
C       8.56      10.94       7.55
C       8.56      10.92       3.82
C       8.56       7.70       5.70
C       2.36      18.62       9.52
C       2.36      18.65      13.25
C       2.36      21.86      11.36
C      10.34      12.48       6.74
C      10.34       9.45       2.89
C      10.34       7.64       7.44
C       0.58      17.09      10.33
C       0.58      20.11      14.17
C       0.58      21.93       9.63
C      10.85      13.87       6.65
C      10.85       8.68       1.73
C      10.85       7.01       8.68
C       0.07      15.70      10.41
C       0.07      20.88      15.34
C       0.07      22.55       8.39
C       1.25      14.03       6.19
C       1.25       8.20       1.82
C       1.25       7.33       9.06
C       9.67      15.53      10.88
C       9.67      21.36      15.25
C       9.67      22.23       8.01
C       1.79      15.29       5.97
C       1.79       7.38       0.84
C       1.79       6.90      10.26
C       9.12      14.27      11.10
C       9.12      22.19      16.23
C       9.12      22.67       6.81
C       1.01      16.42       6.20
C       1.01      16.87      16.82
C       1.01      25.84      11.12
C       9.91      13.14      10.87
C       9.91      12.70       0.25
C       9.91       3.72       5.95
C      10.62      16.30       6.69
C      10.62      17.35      16.68
C      10.62      25.48      10.77
C       0.30      13.26      10.38
C       0.30      12.21       0.39
C       0.30       4.09       6.30
C      10.08      15.03       6.93
C      10.08       8.34       0.59
C      10.08       6.19       9.55
C       0.83      14.53      10.14
C       0.83      21.22      16.48
C       0.83      23.37       7.52
C       7.90      15.95       7.50
C       7.90      18.23      16.57
C       7.90      24.95      10.06
C       3.02      13.61       9.57
C       3.02      11.33       0.50
C       3.02       4.62       7.01
C       6.61      15.37       8.00
C       6.61      18.96      16.83
C       6.61      24.81       9.31
C       4.30      14.20       9.07
C       4.30      10.61       0.24
C       4.30       4.76       7.76
C       5.84      14.51       7.19
C       5.84       8.83       0.91
C       5.84       6.23       8.97
C       5.07      15.06       9.88
C       5.07      20.74      16.16
C       5.07      23.33       8.10
C       6.21      14.20       5.76
C       6.21       7.74       1.89
C       6.21       7.62       9.42
C       4.71      15.36      11.31
C       4.71      21.82      15.18
C       4.71      21.95       7.65
C       6.22      15.63       9.32
C       6.22      19.97      15.95
C       6.22      23.54       8.87
C       4.70      13.94       7.75
C       4.70       9.60       1.12
C       4.70       6.03       8.20
N       9.19      12.25       7.40
N       9.19      10.14       2.76
N       9.19       7.18       6.91
N       1.72      17.32       9.67
N       1.72      19.43      14.31
N       1.72      22.39      10.16
N       3.05      10.13       8.17
N       3.05      11.87       4.21
N       3.05       7.57       4.69
N       7.87      19.43       8.90
N       7.87      17.70      12.86
N       7.87      22.00      12.38
O       0.04      11.54       6.15
O       0.04       9.41       4.00
O       0.04       8.61       6.92
O      10.88      18.03      10.92
O      10.88      20.15      13.07
O      10.88      20.95      10.15
O       8.83      14.84       7.43
O       8.83       8.87       0.50
O       8.83       5.85       9.14
O       2.08      14.73       9.64
O       2.08      20.69      16.57
O       2.08      23.71       7.93
O       3.35       9.25       7.28
O       3.35      11.54       5.42
O       3.35       8.78       4.37
O       7.57      20.32       9.79
O       7.57      18.03      11.65
O       7.57      20.79      12.70
O       1.98      10.82       7.93
O       1.98      11.31       3.74
O       1.98       7.43       5.40
O       8.93      18.75       9.14
O       8.93      18.25      13.33
O       8.93      22.13      11.67
O       3.72      10.30       9.19
O       3.72      12.66       3.55
O       3.72       6.60       4.32
O       7.19      19.26       7.88
O       7.19      16.90      13.51
O       7.19      22.96      12.74
