116

Al      -0.23      10.81       7.60
Al       3.22       3.61       0.02
Al       3.08      10.84       7.64
Al       6.53       3.64       0.02
H       4.53       9.57      12.14
H       2.63       6.06       3.11
H       0.93      12.19       3.07
H       1.71       2.33      10.78
H       4.35       7.91      13.75
H       2.69       7.39       5.02
H       1.24      13.76       1.38
H       1.89       0.70       9.14
H       6.05       7.51      13.48
H       2.75       8.78       3.95
H       2.85      14.20       1.99
H       0.20       0.24       9.43
H       0.06       7.36       9.96
H       5.56       7.86       1.46
H       3.39      14.26       5.00
H       6.11       0.09      12.84
H       0.06       5.81      11.70
H       4.99       9.50       3.01
H       3.40       1.66       3.58
H       5.99      12.95      11.13
H       2.94       7.25       9.74
H       6.11       5.19       4.03
H      -0.07       0.12       5.55
H       3.22       0.02      13.23
H       2.64       8.40      11.03
H       4.41       5.02       4.50
H       5.85      13.28       4.46
H       3.56       1.21      11.97
H       2.55       6.63      12.55
H       4.89       6.58       6.18
H       6.06       0.29       2.63
H       3.50      13.94      10.42
H       2.97       5.48      11.28
H       6.41       7.08       5.42
H       6.27       1.61       3.77
H       3.08      12.76      11.65
H       5.32       6.54       9.19
H       0.13       7.12       2.52
H       2.44       0.56       6.06
H       0.58      13.76      13.69
H       5.43       4.91      10.85
H      -0.13       9.05       3.85
H       2.00       2.25       4.50
H       0.63      12.12      12.03
H       1.43       9.23       8.26
H       1.59       5.40       0.30
H       4.74      12.48       7.09
H       4.69       1.99      14.61
C       1.42      12.47       9.42
C       1.48       1.97       1.77
C       4.69       9.20       5.82
C       4.70       5.24      13.48
C       1.40      12.46       5.82
C       1.40       1.98      13.46
C       4.75       9.20       9.43
C       4.80       5.25       1.78
C       5.17       8.71      11.89
C       3.33       6.90       3.00
C       1.71      12.92       3.33
C       1.06       1.48      11.00
C       5.08       7.62      12.98
C       3.27       7.86       4.21
C       1.80      14.05       2.28
C       1.17       0.39       9.92
C       5.68       6.97      10.14
C       5.73       7.51       2.49
C       2.61       0.21       5.03
C       0.27      14.17      12.72
C       3.31       7.58      10.72
C       5.17       5.75       4.18
C      -0.05      14.10       4.59
C       2.90       0.37      12.24
C       4.74       8.13      10.52
C       4.75       6.36       2.81
C       1.38      13.52       4.72
C       1.44       0.90      12.38
C       4.67       6.26      12.36
C       4.69       8.17       4.69
C       1.49       0.92       2.87
C       1.38      13.50      10.54
C       5.69       5.90      11.26
C       5.53       8.67       3.49
C       2.43       1.36       4.01
C       0.35      13.10      11.61
C       3.28       6.43      11.75
C       5.35       6.87       5.22
C       0.09       0.66       3.43
C       2.75      13.70      11.19
Cl       0.22       9.41      11.89
Cl       2.75       7.72       1.48
Cl       3.23      11.94       3.30
Cl       6.01       2.19      10.98
O       2.52      12.16       6.34
O       0.30       2.22      14.05
O       5.88       9.59       9.00
O       3.72       4.61       1.57
O       0.31      12.14       8.90
O       2.58       2.19       1.16
O       3.57       9.62       6.24
O       5.84       4.73      13.76
O       0.29      11.94       6.15
O       2.50       2.57      13.71
O       3.62       9.60       8.99
O       5.91       5.01       1.22
O       5.84       9.52       6.28
O       3.61       5.00      14.09
O       2.57      12.04       9.06
O       0.38       2.55       1.52
O       1.43      10.00       7.66
O       1.57       4.46       0.05
O       4.74      11.65       7.59
O       4.66       2.75      15.20
