132

Al       5.02       4.55       4.60
Al       1.68      13.26      13.78
Al       5.01      13.45      13.78
Al       1.70       4.36       4.60
H       1.65       9.82      11.26
H       5.05       7.98       7.13
H       1.73       0.92       7.13
H       4.98      16.89      11.26
H       4.99      16.89      16.30
H       1.72       0.91       2.08
H       5.04       7.99       2.08
H       1.66       9.82      16.30
H       3.45      11.93      10.63
H       3.26       5.88       7.75
H       6.58       3.03       7.75
H       0.12      14.78      10.63
H       0.15      14.72      17.07
H       6.56       3.08       1.31
H       3.24       5.82       1.31
H       3.47      11.98      17.07
H       3.37       6.73       9.98
H       3.33      11.08       8.40
H       6.66      15.63       8.40
H       0.05       2.18       9.98
H       6.70       2.20      17.52
H       0.01      15.61       0.86
H       3.33      11.10       0.86
H       3.37       6.71      17.52
H       3.25       6.22       4.43
H       3.46      11.59      13.96
H       0.13      15.12      13.96
H       6.57       2.69       4.43
C       3.40       2.89       6.44
C       3.31      14.92      11.94
C       6.63      11.79      11.94
C       0.08       6.01       6.44
C       0.07       6.02       2.75
C       6.64      11.79      15.63
C       3.32      14.92      15.63
C       3.39       2.88       2.75
C       6.50      10.87      10.78
C       0.21       6.94       7.61
C       3.53       1.97       7.61
C       3.18      15.84      10.78
C       3.20      15.83      16.81
C       3.51       1.97       1.58
C       0.18       6.93       1.58
C       6.52      10.88      16.81
C       1.56       7.80       9.43
C       5.15      10.00       8.95
C       1.83      16.71       8.95
C       4.88       1.10       9.43
C       4.90       1.10      18.12
C       1.80      16.70       0.26
C       5.13      10.01       0.26
C       1.58       7.80      18.12
C       1.35       6.84       8.44
C       5.36      10.96       9.94
C       2.04      15.74       9.94
C       4.67       2.06       8.44
C       4.63       2.07       0.72
C       2.07      15.73      17.66
C       5.40      10.98      17.66
C       1.31       6.83       0.72
C       5.92       7.94       7.78
C       0.79       9.87      10.60
C       4.11      16.84      10.60
C       2.60       0.96       7.78
C       2.58       0.96       1.42
C       4.13      16.84      16.97
C       0.80       9.87      16.97
C       5.90       7.94       1.42
C       6.09       8.93       8.77
C       0.61       8.87       9.61
C       3.94       0.03       9.61
C       2.77      17.78       8.77
C       2.74      17.78       0.42
C       3.96       0.03      17.96
C       0.64       8.87      17.96
C       6.07       8.93       0.42
C       4.40      12.13      10.11
C       2.30       5.68       8.28
C       5.63       3.23       8.28
C       1.08      14.58      10.10
C       1.14      14.55      17.53
C       5.56       3.26       0.86
C       2.24       5.64       0.86
C       4.47      12.16      17.53
C       2.81       7.66      10.21
C       3.90      10.14       8.17
C       0.57      16.57       8.17
C       6.13       1.24      10.21
C       6.15       1.24      17.34
C       0.56      16.57       1.04
C       3.88      10.14       1.04
C       2.83       7.66      17.34
O       2.24       3.11       3.24
O       4.47      14.69      15.14
O       1.14      12.02      15.14
O       5.56       5.79       3.24
O       5.58       5.80       5.94
O       1.13      12.00      12.44
O       4.45      14.70      12.44
O       2.25       3.10       5.94
O       4.50       3.36       6.01
O       2.20      14.45      12.38
O       5.53      12.26      12.38
O       1.18       5.55       6.01
O       1.18       5.59       3.21
O       5.53      12.22      15.18
O       2.21      14.49      15.18
O       4.50       3.32       3.21
O       3.33       5.26       4.59
O       3.38      12.54      13.79
O       0.06      14.17      13.79
O       6.65       3.64       4.59
O       4.68      13.23       9.66
O       2.03       4.57       8.72
O       5.35       4.33       8.72
O       1.35      13.47       9.66
O       1.48      13.44      17.93
O       5.23       4.36       0.46
O       1.91       4.54       0.46
O       4.80      13.27      17.93
O       3.27       8.46      11.02
O       3.43       9.34       7.36
O       0.11      17.37       7.36
O       6.60       0.44      11.02
O       6.63       0.41      16.56
O       0.08      17.39       1.82
O       3.40       9.32       1.82
O       3.31       8.49      16.56
