80

Zn       7.32       9.67       9.00
Zn       7.32       6.88       9.00
H       5.64       9.72       2.23
H       5.79       6.80      15.78
H       8.99       9.73      15.78
H       8.84       6.81       2.21
H       6.00      11.81      10.60
H       8.68       4.73       7.44
H       8.62      11.82       7.37
H       5.96       4.74      10.60
C       7.34       8.31      11.62
C       7.30       8.30       6.38
C       4.74       8.26       9.03
C       9.90       8.25       8.97
C       3.31       8.27       9.02
C      11.34       8.25       8.98
C       2.08       8.27       9.01
C      12.56       8.26       8.99
C       0.74       8.28       9.00
C      13.90       8.27       9.00
C       6.35       9.08       2.75
C       6.49       7.45      15.26
C       8.28       9.09      15.26
C       8.15       7.46       2.73
C       6.38       9.06       4.14
C       6.48       7.51      13.87
C       8.26       9.07      13.87
C       8.17       7.51       4.12
C       7.28       8.29       4.87
C       7.36       8.30      13.13
C       7.24       8.26       2.03
C       7.39       8.27      15.97
C       7.21       8.26       0.61
C       7.40       8.26      17.39
C       6.49      13.78       9.85
C       8.16       2.77       8.17
C       7.99      13.79       8.00
C       6.63       2.77       9.99
C       6.56      12.40       9.87
C       8.10       4.15       8.16
C       8.02      12.40       8.06
C       6.59       4.16       9.92
C       7.22      14.55       8.91
C       7.41       2.01       9.10
C       7.27      15.95       8.95
C       7.36       0.60       9.06
N       7.31      11.73       8.98
N       7.33       4.83       9.03
N       5.35       9.86       4.85
N       5.47       6.69      13.17
N       9.29       9.87      13.16
N       9.20       6.71       4.82
N       5.59      14.44      10.82
N       9.06       2.10       7.21
N       8.75      14.44       6.92
N       5.84       2.11      11.06
O       7.19       9.44      11.07
O       7.16       7.18       6.94
O       7.45       9.44       6.92
O       7.47       7.18      11.06
O       5.32       9.39       8.92
O       9.33       7.11       8.86
O       9.33       9.38       9.08
O       5.31       7.12       9.15
O       5.19      11.02       4.46
O       4.73       9.30       5.75
O       4.78       7.27      12.31
O       5.38       5.50      13.49
O       9.48      11.02      13.57
O       9.90       9.30      12.25
O       9.84       7.29       5.71
O       9.36       5.55       4.44
O       5.55      13.94      11.95
O       4.93      15.40      10.41
O       9.06       2.56       6.06
O       9.75       1.17       7.64
O       9.85      13.93       6.64
O       8.22      15.41       6.37
O       4.72       2.57      11.28
O       6.40       1.19      11.66
