196

Cd       4.14       3.89       3.89
Cd       4.14      14.55      14.55
Cd       4.14      13.11       5.33
Cd       4.14       5.33      13.11
H       5.66      14.79       3.13
H       5.66       3.66      15.31
H       5.66      12.35      12.88
H       5.66       6.09       5.56
H       2.61      12.88      12.35
H       2.61       5.56       6.09
H       2.61      15.31       3.66
H       2.61       3.13      14.79
H       7.22      14.73       3.96
H       7.22       3.72      14.49
H       7.22      13.18      12.94
H       7.22       5.26       5.50
H       1.06      12.94      13.18
H       1.06       5.50       5.26
H       1.06      14.48       3.72
H       1.06       3.96      14.73
H       6.75      16.20       3.07
H       6.75       2.24      15.38
H       6.75      12.29      11.47
H       6.75       6.15       6.98
H       1.52      11.47      12.29
H       1.52       6.98       6.15
H       1.52      15.37       2.24
H       1.52       3.07      16.20
H       3.47      15.97       7.23
H       3.47       2.47      11.22
H       3.47      16.45      11.69
H       3.47       2.00       6.75
H       4.80      11.69      16.45
H       4.80       6.75       2.00
H       4.81      11.22       2.47
H       4.80       7.23      15.98
H       5.19      18.19       7.19
H       5.19       0.26      11.25
H       5.19      16.41       9.48
H       5.19       2.03       8.96
H       3.08       9.48      16.42
H       3.08       8.96       2.03
H       3.08      11.25       0.26
H       3.08       7.19      18.19
H       5.85       1.19       4.83
H       5.85      17.26      13.61
H       5.85      14.06       8.04
H       5.85       4.39      10.41
H       2.42       8.04      14.06
H       2.42      10.41       4.39
H       2.42      13.61      17.26
H       2.42       4.83       1.19
H       0.33      16.39       5.52
H       0.33       2.06      12.92
H       0.33      14.75      11.28
H       0.33       3.70       7.16
H       7.95      11.28      14.75
H       7.95       7.16       3.70
H       7.95      12.92       2.06
H       7.95       5.52      16.39
H       7.77       2.69       4.28
H       7.77      15.75      14.16
H       7.77      13.51       6.53
H       7.77       4.94      11.92
H       0.50       6.53      13.51
H       0.50      11.92       4.94
H       0.50      14.16      15.75
H       0.50       4.28       2.69
H       2.25      17.89       4.91
H       2.25       0.56      13.54
H       2.25      14.13       9.78
H       2.25       4.32       8.66
H       6.03       9.78      14.13
H       6.03       8.66       4.32
H       6.03      13.54       0.56
H       6.03       4.91      17.89
C       6.38      15.39       3.70
C       6.38       3.06      14.74
C       6.38      12.93      12.28
C       6.38       5.52       6.16
C       1.90      12.28      12.93
C       1.90       6.16       5.52
C       1.90      14.74       3.06
C       1.90       3.70      15.39
C       5.71      15.92       4.92
C       5.71       2.53      13.53
C       5.71      14.14      11.75
C       5.71       4.31       6.69
C       2.57      11.75      14.14
C       2.57       6.69       4.31
C       2.57      13.53       2.53
C       2.57       4.92      15.92
C       4.29      16.22       6.56
C       4.29       2.23      11.88
C       4.29      15.78      11.45
C       4.29       2.66       6.99
C       3.98      11.45      15.79
C       3.98       6.99       2.66
C       3.98      11.88       2.23
C       3.98       6.56      16.22
C       5.13      17.30       6.58
C       5.13       1.15      11.87
C       5.13      15.80      10.37
C       5.13       2.65       8.07
C       3.14      10.37      15.80
C       3.14       8.07       2.65
C       3.14      11.87       1.15
C       3.14       6.58      17.30
C       7.13      17.94       5.21
C       7.13       0.51      13.23
C       7.13      14.43       9.73
C       7.13       4.01       8.72
C       1.14       9.73      14.44
C       1.14       8.72       4.01
C       1.14      13.23       0.51
C       1.14       5.21      17.94
C       6.88       0.83       4.88
C       6.88      17.62      13.57
C       6.88      14.10       8.40
C       6.88       4.35      10.05
C       1.39       8.40      14.10
C       1.39      10.05       4.35
C       1.39      13.57      17.62
C       1.39       4.87       0.83
C       0.16      17.42       5.24
C       0.16       1.02      13.21
C       0.16      14.46      10.24
C       0.16       3.99       8.20
C       8.12      10.24      14.46
C       8.12       8.20       3.99
C       8.12      13.21       1.02
C       8.12       5.24      17.42
C       7.96       1.66       4.57
C       7.96      16.79      13.88
C       7.96      13.79       7.57
C       7.96       4.65      10.88
C       0.32       7.57      13.79
C       0.32      10.88       4.65
C       0.32      13.88      16.79
C       0.32       4.57       1.66
C       1.22      18.26       4.90
C       1.22       0.19      13.54
C       1.22      14.13       9.41
C       1.22       4.32       9.04
C       7.05       9.41      14.13
C       7.05       9.03       4.32
C       7.05      13.54       0.19
C       7.05       4.90      18.26
C       0.99       1.16       4.58
C       0.99      17.29      13.87
C       0.99      13.80       8.07
C       0.99       4.65      10.38
C       7.28       8.07      13.80
C       7.28      10.38       4.65
C       7.28      13.87      17.29
C       7.28       4.58       1.16
C       2.14       2.06       4.26
C       2.14      16.38      14.19
C       2.14      13.48       7.16
C       2.14       4.97      11.29
C       6.13       7.16      13.48
C       6.13      11.29       4.97
C       6.13      14.19      16.38
C       6.13       4.26       2.06
N       4.66      15.37       5.53
N       4.66       3.08      12.92
N       4.66      14.75      12.30
N       4.66       3.69       6.15
N       3.62      12.30      14.75
N       3.62       6.15       3.69
N       3.62      12.91       3.08
N       3.62       5.53      15.37
N       6.04      17.09       5.54
N       6.04       1.36      12.90
N       6.04      14.76      10.58
N       6.04       3.68       7.87
N       2.24      10.58      14.76
N       2.24       7.87       3.68
N       2.24      12.90       1.36
N       2.24       5.54      17.09
O       1.89       3.32       4.17
O       1.89      15.13      14.28
O       1.89      13.39       5.90
O       1.89       5.06      12.54
O       6.38       5.90      13.39
O       6.38      12.54       5.06
O       6.38      14.28      15.13
O       6.38       4.17       3.32
O       3.31       1.58       4.12
O       3.31      16.87      14.33
O       3.31      13.34       7.64
O       3.31       5.11      10.80
O       4.97       7.64      13.34
O       4.97      10.80       5.11
O       4.97      14.33      16.87
O       4.97       4.12       1.58
