76

Tb       1.33       9.05       8.83
Tb       9.05       1.33       1.77
Tb       9.05       9.05       5.30
Tb       1.33       1.33      12.36
H       0.81       4.84       9.07
H       9.57       5.53       2.00
H       4.84       9.57       5.53
H       5.53       0.81      12.60
H       9.57       4.84       5.07
H       0.81       5.53      12.13
H       5.53       9.57       8.60
H       4.84       0.81       1.53
H      10.38       1.12       7.07
H      10.38       9.26      14.13
H       1.12       0.00       3.53
H       9.26      10.38      10.60
C       0.45       4.29       8.19
C       0.44       2.89       8.20
C       0.84       2.12       9.40
C       9.92       6.08       1.13
C       9.94       7.48       1.13
C       9.53       8.26       2.34
C       4.29       9.92       4.66
C       2.89       9.94       4.67
C       2.12       9.53       5.87
C       6.08       0.45      11.73
C       7.48       0.44      11.73
C       8.26       0.84      12.94
C       9.92       4.29       5.94
C       9.94       2.89       5.93
C       9.53       2.12       4.73
C       0.45       6.08      13.00
C       0.44       7.48      13.00
C       0.84       8.26      11.79
C       6.08       9.92       9.47
C       7.48       9.94       9.47
C       8.26       9.53       8.26
C       4.29       0.45       2.41
C       2.89       0.44       2.40
C       2.12       0.84       1.19
C      10.38       4.99       7.07
C      10.38       2.20       7.07
C       0.00       6.49       7.07
C       0.00       5.39       0.00
C      10.38       8.17      14.13
C       0.00       3.89       0.00
C       4.99      10.38       3.53
C       2.20       0.00       3.53
C       6.49       0.00       3.53
C       5.39       0.00      10.60
C       8.17      10.38      10.60
C       3.89       0.00      10.60
O       0.86       7.07       7.80
O       1.01       0.86       9.29
O       2.72       9.41       6.99
O       9.52       3.31       0.74
O       9.36       9.52       2.22
O       7.66       0.97      14.05
O       7.07       9.52       4.27
O       0.86       9.36       5.75
O       9.41       7.66       3.46
O       3.31       0.86      11.33
O       9.52       1.01      12.82
O       0.97       2.72      10.52
O       9.52       7.07       6.33
O       9.36       0.86       4.84
O       7.66       9.41       7.14
O       0.86       3.31      13.39
O       1.01       9.52      11.91
O       2.72       0.97       0.08
O       3.31       9.52       9.86
O       9.52       9.36       8.38
O       0.97       7.66      10.68
O       7.07       0.86       2.80
O       0.86       1.01       1.31
O       9.41       2.72       3.61
