165

Cu       3.43      12.85       7.42
Cu       3.43       8.57       0.00
Cu       3.43      21.41       7.42
H       1.18      13.60       8.00
H       1.18      17.26      13.89
H       1.18      20.53       7.78
H       5.68      12.09       6.83
H       5.68       8.44       0.95
H       5.68       5.16       7.06
H       4.25      14.57       5.85
H       4.25      14.91      14.13
H       4.25      21.91       9.70
H       2.62      11.12       8.99
H       2.62      10.79       0.71
H       2.62       3.78       5.14
H       1.15      11.87      11.49
H       1.15      21.14      13.65
H       1.15      18.38       4.54
H       5.71      13.83       3.35
H       5.71       4.55       1.19
H       5.71       7.32      10.30
H       0.24      13.32      11.04
H       0.24      20.03      12.62
H       0.24      18.04       6.02
H       6.62      12.37       3.80
H       6.62       5.67       2.22
H       6.62       7.66       8.82
H       0.63      12.09       9.80
H       0.64      19.57      14.31
H       0.64      19.73       5.57
H       6.23      13.61       5.04
H       6.23       6.12       0.53
H       6.23       5.96       9.27
H       1.36      15.10       9.92
H       1.36      18.17      11.64
H       1.36      18.12       8.12
H       5.50      10.60       4.92
H       5.50       7.53       3.20
H       5.50       7.57       6.72
H       3.13      15.04       9.70
H       3.13      18.01      11.80
H       3.13      18.34       8.18
H       3.73      10.66       5.14
H       3.73       7.69       3.04
H       3.73       7.35       6.66
H       1.16      15.93       7.41
H       1.16      15.58      12.17
H       1.16      19.88      10.10
H       5.70       9.76       7.43
H       5.70      10.12       2.67
H       5.71       5.81       4.74
H       2.93      15.94       7.56
H       2.93      15.71      12.09
H       2.93      19.75      10.03
H       3.93       9.76       7.28
H       3.93       9.99       2.75
H       3.93       5.95       4.81
H       2.28      15.74       5.18
H       2.28      13.74      13.46
H       2.28      21.92      11.04
H       4.59       9.96       9.66
H       4.59      11.95       1.38
H       4.59       3.78       3.80
H       1.31      14.28       5.55
H       1.31      14.80      14.53
H       1.31      22.32       9.59
H       5.56      11.42       9.29
H       5.55      10.90       0.31
H       5.56       3.38       5.25
H       4.33      13.12      10.40
H       4.33      19.58      13.11
H       4.33      18.70       6.16
H       2.53      12.58       4.44
H       2.53       6.12       1.72
H       2.53       7.00       8.67
H       3.44      11.80      11.23
H       3.44      20.95      13.84
H       3.44      18.64       4.61
H       3.42      13.89       3.61
H       3.42       4.75       1.00
H       3.42       7.06      10.23
H       1.21      10.99       4.42
H       1.21       6.90       3.11
H       1.21       7.81       7.31
H       5.65      14.71      10.42
H       5.65      18.80      11.73
H       5.65      17.89       7.53
C       1.00      12.62      10.70
C       1.01      20.08      13.40
C       1.00      18.69       5.58
C       5.86      13.08       4.14
C       5.86       5.61       1.44
C       5.86       7.00       9.26
C       2.20      14.46       9.61
C       2.20      18.22      12.35
C       2.20      18.71       7.72
C       4.66      11.23       5.23
C       4.66       7.48       2.49
C       4.66       6.98       7.12
C       2.07      15.32       7.29
C       2.07      15.78      12.76
C       2.07      20.29       9.63
C       4.80      10.37       7.55
C       4.80       9.92       2.08
C       4.80       5.40       5.21
C       2.20      14.86       5.84
C       2.20      14.76      13.89
C       2.20      21.78       9.95
C       4.67      10.84       9.00
C       4.67      10.94       0.95
C       4.67       3.92       4.89
C       3.43      12.50      10.36
C       3.43      19.86      13.67
C       3.43      19.04       5.64
C       3.44      13.20       4.48
C       3.44       5.84       1.17
C       3.44       6.65       9.20
C       1.24      10.53       7.11
C       1.24       9.46       2.16
C       1.24       5.71       5.56
C       5.63      15.17       7.73
C       5.63      16.24      12.67
C       5.63      19.99       9.27
C       1.20       9.51       5.99
C       1.20       9.00       3.61
C       1.20       7.19       5.24
C       5.66      16.19       8.85
C       5.66      16.70      11.23
C       5.66      18.51       9.60
C       1.20       9.92       4.65
C       1.20       7.63       3.92
C       1.20       8.14       6.27
C       5.66      15.77      10.19
C       5.66      18.07      10.92
C       5.66      17.56       8.57
N       2.26      13.33      10.48
N       2.26      19.54      12.89
N       2.26      18.52       6.30
N       4.60      12.37       4.36
N       4.60       6.15       1.95
N       4.60       7.17       8.54
N       2.05      14.13       8.16
N       2.05      17.13      13.35
N       2.05      20.13       8.16
N       4.81      11.56       6.68
N       4.81       8.57       1.48
N       4.81       5.57       6.68
N       3.38      13.99       5.74
N       3.38      15.11      14.69
N       3.38      22.30       9.25
N       3.48      11.71       9.10
N       3.48      10.59       0.15
N       3.48       3.40       5.59
O       1.36      10.09       8.30
O       1.36      10.71       1.96
O       1.36       4.90       4.59
O       5.50      15.61       6.54
O       5.50      14.99      12.88
O       5.50      20.79      10.25
O       1.16      11.76       6.77
O       1.16       8.55       1.27
O       1.16       5.39       6.80
O       5.70      13.94       8.07
O       5.70      17.14      13.57
O       5.70      20.31       8.04
