154

Zn      16.53       1.15       1.84
Zn       8.24       4.84      15.39
Zn       8.41      14.43       1.66
Zn       2.80       1.17       1.68
Zn      18.56       9.69       8.74
Zn      16.63      10.68      11.14
Zn      15.38       9.57       8.32
Zn      16.82      12.39       8.56
H      20.32       6.23      15.43
H      19.80       5.12      12.04
H      18.97       5.78      13.52
H      19.15       8.16      13.91
H      20.18      10.25      13.40
H      23.59       9.41      12.68
H      22.47      10.08      13.94
H      21.15       8.44      15.20
H      22.66      15.56       5.73
H      23.66      12.59       7.51
H      22.80      14.19       7.67
H      20.52      14.29       6.80
H      18.78      13.29       5.49
H      20.50      11.66       2.81
H      19.53      13.13       3.29
H      20.75      14.89       4.50
H      17.34       5.34       2.84
H      20.18       7.25       3.86
H      18.45       7.33       3.29
H      16.73       6.69       4.96
H      16.24       5.58       7.04
H      18.88       3.24       7.49
H      17.10       3.46       7.13
H      16.56       4.28       4.85
H      13.94      17.01      13.93
H      14.19      13.61      15.08
H      13.41      14.71      13.85
H      14.84      15.44      11.99
H      17.03      15.72      11.08
H      19.18      16.06      13.90
H      18.37      16.93      12.52
H      15.99      17.40      12.78
H      12.08       5.27      13.47
H      15.25       6.67      14.34
H      14.36       5.67      13.11
H      12.98       6.90      11.50
H      11.89       8.91      10.85
H      10.88      10.43      13.95
H      10.32       9.44      12.53
H      10.84       7.08      12.56
H      10.28      13.45       4.67
H      11.87      14.90       7.51
H      10.96      13.45       6.88
H      12.25      11.80       5.62
H      14.21      11.23       4.44
H      15.19      14.31       2.80
H      14.33      12.72       2.55
H      12.06      12.55       3.36
C      22.44       5.95      15.51
C      21.18       6.32      14.74
C      19.87       5.83      12.87
C      20.10       8.11      13.34
C      20.34       9.45      12.65
C      22.60       9.32      13.14
C      21.25       7.80      14.30
C      19.29       9.66      11.56
C      23.45      15.04       3.81
C      22.80      14.64       5.13
C      22.99      13.30       7.02
C      20.83      13.46       6.13
C      19.60      12.61       5.79
C      20.32      12.40       3.60
C      21.41      14.06       4.84
C      19.13      11.90       7.05
C      18.18       3.40       2.79
C      18.10       4.78       3.42
C      19.19       6.77       3.90
C      17.55       6.12       5.45
C      17.26       6.01       6.95
C      18.13       3.86       6.99
C      17.58       4.70       4.86
C      17.21       7.38       7.60
C      15.17      17.94      15.38
C      14.86      16.74      14.49
C      14.34      14.48      14.43
C      15.69      15.25      12.67
C      16.93      14.92      11.84
C      18.27      16.13      13.30
C      15.97      16.54      13.47
C      16.79      13.60      11.10
C      10.93       5.94      15.13
C      12.05       6.17      14.11
C      14.31       6.55      13.79
C      12.91       7.68      12.29
C      12.69       9.04      11.62
C      11.14       9.63      13.25
C      11.70       7.36      13.20
C      13.96       9.48      10.89
C      10.66      14.94       3.22
C      11.10      14.16       4.44
C      11.73      14.22       6.67
C      12.90      12.66       5.35
C      14.32      12.13       5.07
C      14.51      13.57       3.24
C      12.34      13.33       4.09
C      14.97      11.71       6.39
O       8.32      16.30       1.07
O      23.36       5.37      14.86
O      15.19       1.61       0.47
O      21.01       5.45      13.62
O      19.99       7.11      12.32
O      21.65       9.54      12.12
O      22.53       8.02      13.69
O      18.09       9.70      12.00
O      19.68       9.76      10.36
O       7.48      14.34       3.40
O      22.91      16.05       3.25
O      23.62      13.71       5.83
O      21.77      12.62       6.79
O      19.88      11.69       4.74
O      21.54      13.08       3.81
O      18.69      12.69       7.95
O      19.21      10.64       7.13
O       2.36       2.98       2.36
O      17.05       2.81       2.75
O      19.34       5.46       3.37
O      18.80       6.78       5.26
O      18.21       5.15       7.58
O      18.46       3.86       5.61
O      16.11       7.99       7.39
O      18.22       7.80       8.24
O       7.87      13.09       0.37
O      15.44      19.01      14.75
O      14.64      15.58      15.27
O      15.39      14.16      13.54
O      18.10      14.88      12.66
O      17.21      16.45      14.17
O      16.36      13.72       9.90
O      17.08      12.53      11.70
O       3.97       1.31       0.09
O       9.80       5.69      14.58
O      13.30       6.35      14.76
O      14.13       7.73      13.03
O      12.30      10.04      12.56
O      11.36       8.47      14.03
O      14.09       9.00       9.72
O      14.76      10.24      11.53
O      10.67      16.21       3.24
O      10.29      14.21       2.24
O      11.33      15.00       5.56
O      12.98      13.58       6.45
O      15.14      13.10       4.42
O      13.30      14.23       3.50
O      14.51      10.64       6.90
O      15.86      12.48       6.85
O      16.83      10.54       9.19
