84

Zn       5.28       5.91       8.72
Zn       5.27       8.80       8.85
H       5.42      10.94       6.79
H       5.63      13.43       6.69
H       5.22      13.47      11.00
H       5.10      10.95      10.91
H       3.45       1.26       7.55
H       6.80       1.30      10.28
H       6.83       3.80      10.05
H       3.62       3.76       7.45
H       4.55       9.70       4.74
H       4.18       9.81       2.29
H       5.70       5.81       1.86
H       6.02       5.67       4.34
H       5.04       9.32      15.65
H       5.46       5.05      15.38
H       5.31       5.20      12.89
H       4.85       9.45      13.16
H       8.06       9.03       7.29
H       2.06       9.14       6.70
H       1.22       5.59       9.82
H       9.66       5.54      10.09
H       7.25       9.86       5.77
H       1.47      11.90       6.60
C       5.51       7.60       6.17
C       2.71       7.23       8.44
C       5.02       7.41      11.38
C       7.85       7.15       8.97
C       5.39      11.54       7.70
C       5.50      12.93       7.65
C       5.43      13.65       8.85
C       5.27      12.94      10.05
C       5.21      11.56      10.01
C       5.56      15.12       8.82
C       5.06      -0.40       8.99
C       4.22       1.78       8.12
C       5.13       1.07       8.91
C       6.08       1.80       9.63
C       6.10       3.19       9.52
C       4.30       3.17       8.05
C       5.33       7.68       4.69
C       4.81       8.85       4.11
C       4.60       8.92       2.73
C       4.94       7.83       1.92
C       5.45       6.66       2.50
C       5.63       6.58       3.88
C       4.75       7.90       0.45
C       5.37       7.10      17.15
C       5.08       8.42      15.04
C       5.24       7.17      15.68
C       5.32       6.01      14.89
C       5.23       6.09      13.51
C       5.07       7.33      12.88
C       4.98       8.49      13.66
C       9.33       7.20       8.78
C       9.92       8.16       7.90
C      10.13       6.28       9.44
C       9.14       9.05       7.13
C       9.70       9.95       6.25
C       1.21       7.25       8.47
C       0.59       6.31       9.29
C       0.42       8.18       7.74
C       0.98       9.12       6.83
C       0.19       9.99       6.10
C       8.86      10.98       5.57
C       0.88      10.87       5.09
N       5.26      10.87       8.85
N       5.23       3.86       8.74
Cl       7.68      -0.70       8.42
Cl       2.94      15.33       9.24
Cl       3.43       5.26      17.39
Cl       6.66       9.74       0.28
O       5.43       6.46       6.72
O       5.74       8.71       6.79
O       3.32       8.35       8.37
O       3.26       6.09       8.54
O       4.91       8.56      10.85
O       5.12       6.31      10.74
O       7.31       6.00       8.89
O       7.23       8.25       9.17
O       7.53      10.74       5.42
O       9.32      12.05       5.18
O       1.65      11.86       5.64
O       0.89      10.67       3.90
