82

Zn       5.80       7.57       8.57
Zn       5.79      10.38       8.44
H       7.14      12.58       9.80
H       7.21      15.08       9.80
H       4.10      15.01       6.78
H       7.36       2.91      10.28
H       4.25       2.87       7.27
H       4.36       5.40       7.26
H       6.05      11.34      12.61
H       6.08      11.54      15.11
H       5.93       7.24      15.41
H       5.77      10.68       1.62
H       5.85       6.37       1.87
H       5.81       6.55       4.38
H       2.79      10.68      10.56
H       8.87      10.94      10.38
H      10.01       7.42       7.35
H       1.49       7.31       7.41
H       2.93      14.09      11.17
H       8.80      11.65      13.76
C       5.90       9.16      11.10
C       8.40       9.12       8.55
C       5.75       8.72       5.91
C       3.19       8.88       8.66
C       6.50      13.16       9.14
C       6.53      14.54       9.14
C       5.66      15.23       8.28
C       4.79      14.51       7.45
C       4.84      13.12       7.53
C       6.68       3.42       9.60
C       5.80       2.72       8.78
C       4.94       3.41       7.91
C       5.00       4.79       7.91
C       6.65       4.81       9.51
C       5.98       9.20      12.59
C       6.05      10.45      13.24
C       6.06      10.57      14.62
C       6.01       9.40      15.41
C       5.97       8.14      14.80
C       5.95       8.06      13.41
C       5.77       9.77       2.22
C       5.82       8.52       1.59
C       5.82       7.34       2.37
C       5.80       7.44       3.75
C       5.76       8.69       4.41
C       5.74       9.84       3.61
C       1.69       8.93       8.78
C       1.02       9.88       9.60
C       0.96       8.05       8.01
C       1.70      10.74      10.51
C       1.05      11.63      11.32
C       9.89       9.07       8.70
C      10.58       8.11       7.97
C      10.61       9.95       9.56
C       9.95      10.88      10.41
C      10.64      11.71      11.27
S       2.11      12.58      12.41
S       9.63      12.85      12.21
N       5.67      12.45       8.33
N       5.57      16.64       8.16
N       5.88       1.31       8.90
N       5.85       5.49       8.70
N       5.98       9.37      16.82
N       5.85       8.55       0.18
O       5.70       8.03      10.55
O       6.04      10.27      10.49
O       7.86      10.27       8.41
O       7.81       8.00       8.54
O       5.71       9.85       6.48
O       5.78       7.59       6.50
O       3.72       7.74       8.48
O       3.80      10.00       8.72
O       2.12      14.05      11.71
O       1.50      12.72      13.69
O       3.45      12.07      12.26
O       9.60      12.21      13.69
O      10.30      14.11      12.31
O       8.29      12.78      11.69
F       4.03      12.39       6.77
F       7.49       5.53      10.27
F       5.90       6.81      12.88
F       5.70      11.08       4.15
