288

Zn      10.18      10.52       0.33
Zn       4.84      17.55       9.18
Zn      -1.31       4.95      19.17
Zn       4.03      -2.07      10.32
Zn       7.19      15.57       1.16
Zn       7.83      17.89       4.08
Zn       1.68      -0.09      18.35
Zn       1.04      -2.41      15.42
H       9.21      13.18       1.46
H       5.81      17.05       6.34
H      -0.34       2.30      18.05
H       3.07      -1.57      13.17
H       6.88       8.60      19.30
H       8.14      -1.36       6.75
H       1.99       6.88       0.21
H       0.73      16.83      12.76
H       5.71       6.63      18.49
H       9.31      -1.02       8.85
H       3.16       8.85       1.02
H      -0.43      16.50      10.66
H       7.15       9.79       0.08
H       7.87      17.62       9.95
H       1.73       5.69      19.43
H       1.00      -2.15       9.55
H       7.99       9.86       2.34
H       7.03      15.44       9.38
H       0.88       5.62      17.17
H       1.84       0.04      10.13
H       8.85      11.30       2.93
H       6.17      15.19       7.83
H       0.02       4.18      16.58
H       2.71       0.28      11.67
H       5.08      13.37       0.73
H       9.95      17.81       6.33
H       3.80       2.11      18.78
H      -1.07      -2.33      13.18
H       4.53       8.70      18.87
H      10.49      -0.92       6.75
H       4.35       6.78       0.64
H      -1.62      16.40      12.76
H       5.63       9.97       1.89
H       9.39      15.90       9.37
H       3.25       5.51      17.62
H      -0.52      -0.43      10.13
H       4.74      11.50       2.18
H      -2.02      15.97       7.81
H       4.13       3.98      17.33
H      10.89      -0.49      11.69
H       7.65      13.34       3.32
H       7.37      15.28       5.76
H       1.22       2.14      16.19
H       1.50       0.20      13.75
H       5.90      13.43       2.99
H       9.12      15.62       5.75
H       2.98       2.05      16.51
H      -0.25      -0.14      13.76
H       8.61       7.24       2.69
H       6.41      14.50      11.85
H       0.27       8.24      16.81
H       2.46       0.98       7.66
H       8.01       5.08       3.80
H       7.01      12.93      13.70
H       0.86      10.40      15.71
H       1.86       2.54       5.81
H       8.61       2.73       4.36
H       6.41      11.85      15.86
H       0.26      12.75      15.14
H       2.46       3.63       3.65
H       0.07       1.10       3.04
H       2.65      12.77      17.74
H       8.80      14.37      16.46
H       6.22       2.71       1.77
H       0.72       3.31       2.09
H       2.00      14.20      15.81
H       8.15      12.17      17.42
H       6.87       1.28       3.70
H       0.16       5.65       1.59
H       2.57      15.21      13.64
H       8.71       9.83      17.92
H       6.31       0.26       5.86
H       2.78      11.44       2.59
H      -0.06      15.56       7.77
H       6.09       4.03      16.92
H       8.93      -0.08      11.73
H      -1.05      12.70       4.02
H       3.77      14.45       6.22
H       9.92       2.77      15.48
H       5.10       1.03      13.28
H       3.93      12.82       4.34
H      -1.21      14.16       6.03
H       4.94       2.66      15.16
H      10.08       1.32      13.47
H      -1.01      14.77       0.71
H       3.73      18.14       4.96
H       9.88       0.71      18.79
H       5.14      -2.66      14.54
H      -0.92      17.35       4.15
H       3.65      15.38       1.66
H       9.80      -1.88      15.35
H       5.22       0.10      17.84
H       1.47      14.67       0.69
H       1.25      18.14       5.06
H       7.40       0.81      18.81
H       7.62      -2.66      14.44
C       8.40      12.83       0.82
C       6.63      17.60       6.82
C       0.48       2.64      18.69
C       2.25      -2.12      12.68
C       7.20      10.89       0.02
C       7.82      17.94       8.90
C       1.67       4.59      19.49
C       1.06      -2.46      10.60
C       8.03      10.95       2.30
C       6.99      15.73       8.32
C       0.84       4.53      17.21
C       1.88      -0.25      11.19
C       6.02      12.92       0.39
C       9.00      18.04       6.84
C       2.85       2.56      19.12
C      -0.13      -2.56      12.67
C       5.69      11.06       1.85
C       9.33      16.19       8.32
C       3.18       4.42      17.66
C      -0.46      -0.72      11.19
C       6.84      12.97       2.67
C       8.18      15.83       6.27
C       2.03       2.50      16.84
C       0.69      -0.35      13.24
C      10.89       7.85       1.37
C       4.13      15.92      11.55
C      -2.02       7.63      18.13
C       4.74      -0.45       7.96
C      10.57       6.57       2.07
C       4.45      14.96      12.64
C      -1.70       8.91      17.44
C       4.42       0.52       6.87
C       9.31       6.40       2.70
C       5.72      14.30      12.66
C      -0.43       9.08      16.80
C       3.16       1.18       6.85
C       8.98       5.21       3.31
C       6.04      13.44      13.68
C      -0.11      10.27      16.20
C       2.83       2.04       5.83
C       9.89       4.12       3.30
C       5.13      13.20      14.74
C      -1.02      11.36      16.21
C       3.74       2.28       4.76
C       9.57       2.87       3.87
C       5.45      12.36      15.83
C      -0.70      12.61      15.63
C       3.42       3.12       3.68
C      10.45       1.80       3.78
C       4.58      12.21      16.89
C      -1.57      13.68      15.73
C       4.30       3.27       2.61
C      11.70       1.96       3.13
C       3.32      12.87      16.88
C      -2.83      13.51      16.38
C       5.56       2.60       2.62
C      -0.24       3.18       2.60
C       2.96      13.67      15.82
C       9.11      12.30      16.91
C       5.91       1.81       3.69
C      11.16       4.28       2.66
C       3.86      13.86      14.73
C      -2.29      11.19      16.85
C       5.02       1.61       4.77
C      11.48       5.53       2.06
C       3.54      14.72      13.66
C      -2.61       9.95      17.44
C       5.33       0.75       5.85
C       9.99       0.46       4.25
C       5.03      11.45      18.10
C      -1.12      15.02      15.26
C       3.84       4.03       1.41
C       0.16      11.24       2.09
C       2.56      15.99       8.08
C       8.71       4.23      17.41
C       6.31      -0.52      11.42
C       0.80      12.01       3.21
C       1.92      15.09       7.08
C       8.07       3.46      16.30
C       6.95       0.39      12.43
C       2.22      12.04       3.31
C       0.51      14.99       7.03
C       6.65       3.44      16.20
C       8.37       0.48      12.48
C       0.04      12.73       4.11
C       2.69      14.37       6.18
C       8.84       2.75      15.40
C       6.19       1.11      13.33
C       0.65      13.50       5.13
C       2.08      13.55       5.20
C       8.23       1.98      14.38
C       6.79       1.92      14.31
C       2.84      12.79       4.27
C      -0.12      14.23       6.08
C       6.03       2.68      15.24
C       8.99       1.25      13.43
C       9.71      16.10       2.47
C       5.31      16.73       3.26
C      -0.84      -0.62      17.04
C       3.56      -1.26      16.24
C      -1.10      16.05       2.46
C       3.83      16.73       3.32
C       9.98      -0.57      17.05
C       5.05      -1.25      16.19
C      -0.43      15.30       1.46
C       3.15      17.53       4.27
C       9.30       0.17      18.05
C       5.72      -2.06      15.23
C      -0.39      16.76       3.41
C       3.11      15.96       2.41
C       9.26      -1.28      16.09
C       5.76      -0.49      17.10
C       0.95      15.25       1.45
C       1.78      17.53       4.32
C       7.93       0.22      18.06
C       7.10      -2.05      15.18
C       1.02      16.76       3.41
C       1.70      15.97       2.42
C       7.85      -1.28      16.10
C       7.17      -0.49      17.09
S       8.88      19.10       0.72
S       6.14      19.12       0.74
S      -0.01      -3.63      18.79
S       2.73      -3.64      18.77
S       5.73      15.20      17.99
S       9.29       1.42       0.62
S       3.14       0.28       1.52
S      -0.41      14.06      18.89
N       8.34      11.35       0.88
N       6.69      17.20       8.25
N       0.54       4.13      18.62
N       2.19      -1.72      11.25
N       7.12      13.44       1.27
N       7.90      17.29       6.13
N       1.75       2.04      18.23
N       0.97      -1.82      13.38
N       5.93      11.47       0.45
N       9.09      17.65       8.24
N       2.94       4.01      19.06
N      -0.21      -2.17      11.27
N       6.76      11.52       2.75
N       8.26      15.42       7.66
N       2.11       3.96      16.76
N       0.62       0.06      11.84
N       7.51      18.41       1.29
N       1.36      -2.93      18.22
N       7.05      14.46      18.61
N       7.97       0.64       1.20
N       1.82       1.02       0.90
N       0.90      14.83      18.31
N       7.51      -3.30      18.52
N       1.36      18.78       0.99
O       9.99       8.76       1.37
O       5.03      16.13      10.66
O      -1.12       6.72      18.13
O       3.84      -0.65       8.84
O      -0.27       7.94       0.81
O       2.99      16.50      11.59
O       9.14       7.53      18.70
O       5.88      -1.02       7.92
O      10.65      -0.56       3.75
O       4.37      11.69      19.20
O      -1.78      16.04      15.75
O       4.50       3.78       0.31
O       9.01       0.32       5.01
O       6.01      10.67      18.05
O      -0.13      15.15      14.50
O       2.86       4.81       1.45
O      -1.10      11.35       1.94
O       3.82      16.16       8.01
O       9.97       4.12      17.56
O       5.05      -0.69      11.50
O       0.94      10.54       1.36
O       1.78      16.55       8.93
O       7.93       4.93      18.14
O       7.09      -1.07      10.58
O       9.12      15.75       1.39
O       5.90      17.70       3.85
O      -0.25      -0.28      18.12
O       2.97      -2.23      15.66
O       9.12      16.46       3.54
O       5.90      15.77       2.67
O      -0.25      -0.98      15.96
O       2.97      -0.29      16.84
