44

Al       7.12      13.16       5.29
Al      10.48      13.15       5.30
H       5.67       4.01       6.35
H       5.41      11.76       4.20
H       4.18       9.22       4.76
H       6.72       9.01       5.67
H       4.29       6.70       4.79
H       2.14       3.80       1.15
H       3.00       3.03       2.45
H       8.98      11.94       9.43
H       8.12      12.72       8.13
C       5.44      12.49       7.54
C       2.34       4.96       5.34
C       5.68       3.24       3.03
C       8.75      10.76       5.22
C       2.24       6.45       5.28
C       8.83       9.27       5.24
C       7.77       7.13       5.48
C       3.29       8.62       4.98
C       7.68       8.51       5.49
C       3.36       7.23       5.01
C       4.17       4.13       1.20
C       6.96      11.58       9.37
C       5.42       4.01       1.85
C       5.71      11.71       8.72
C       6.83      10.69      10.48
C       4.30       5.01       0.08
S       6.67       4.99       1.13
S       4.45      10.72       9.44
N       6.52       6.36       5.53
N       3.02       3.51       1.56
N       8.10      12.21       9.01
O       6.44      13.13       7.04
O       1.28       4.32       5.65
O       6.86       3.20       3.53
O       7.62      11.29       5.46
O       4.66       2.60       3.54
O       9.84      11.38       4.97
O       4.25      12.51       7.05
O       3.47       4.44       5.09
O       5.67       3.10       5.99
O       5.43      12.64       4.60
O       6.09       6.02       4.43
O       5.97       6.16       6.62
