92

Zn       3.93       5.91       7.92
Zn       1.16       6.20       7.24
H       1.02       7.61      14.29
H       5.27       3.78       9.47
H      -2.45       3.40       9.61
H       7.63       3.01       9.89
H       6.54       6.91       7.10
H      -0.17       8.31       5.83
H       8.09       8.03       6.29
H       2.64       7.51       0.43
H      -1.10       6.67      13.58
H       6.04       5.07       1.56
H       4.52       4.32       1.05
H       6.21       7.59       1.69
H      -3.26      11.57       9.06
H       5.90       0.84       7.78
H       6.38      12.13       7.50
H       4.86       8.61       1.21
H      -1.57       9.99       4.78
H      -0.60       4.69       8.60
H       2.58       5.75       0.33
H      -1.53       3.61      13.52
H       2.93       3.87      13.54
H       2.36       6.58      14.78
H       0.59       3.34      14.11
H       0.03       2.04       8.31
H      -1.56      10.52       9.13
H       4.22       1.80       7.52
H       5.03      10.13       7.73
H       0.45       9.20       8.82
C       2.86       8.60       7.90
C       2.14       2.05       7.87
C       4.13      10.73       7.85
C       3.14       6.29       5.08
C       4.20      12.13       7.78
C       5.80      -0.24       7.86
C       1.78      12.28       8.08
C       1.72      10.86       8.22
C       3.32      -0.07       8.14
C      -0.68      12.42       8.51
C      -0.66      11.02       8.78
C       1.27       6.67      14.80
C       0.48      10.27       8.62
C       3.31       1.29       7.83
C       0.94       1.45       8.27
C       2.23       3.51       7.54
C       2.91      10.09       8.03
C       7.43       3.89       9.29
C      -1.05       7.82       6.23
C      -2.34       8.32       5.98
C      -3.43       7.64       6.52
C      -3.24       6.51       7.31
C       0.66       5.50      13.99
C      -1.89       6.09       7.56
C       8.20       5.75       7.91
C       8.50       4.62       8.73
C      -2.66       4.26       8.96
C       1.95       5.83      10.10
C      -1.63       4.97       8.41
C       6.85       6.08       7.73
C       6.13       4.30       9.05
C       5.39       7.68       0.98
C       3.24       6.62       0.19
C       1.04       4.16      14.70
C      -0.90       5.69      14.01
C       1.54       5.67      11.48
C       4.42       6.48       1.18
C      -0.41      -0.45       9.02
C       8.27      -0.31       7.59
C      -2.52       9.54       5.17
C      -1.62       4.67      13.16
C       2.54       3.92      14.59
C       5.18       5.17       0.87
C       1.15       5.56      12.63
C       3.93       6.45       2.55
C       3.53       6.39       3.70
C       0.90       0.10       8.59
N       5.86       5.39       8.29
N      -0.83       6.74       6.98
O       3.83       7.92       8.37
O       8.41       0.90       7.53
O      -3.61      10.05       4.93
O      -2.29       4.93      12.18
O       7.95       4.79       0.26
O       1.84       8.14       7.28
O       4.08       6.41       5.93
O       1.90       6.10       5.33
O       3.39       3.99       7.36
O       1.14       4.17       7.49
O       3.12       5.43       9.79
O       1.09       6.36       9.33
O      -1.38       0.24       9.32
