56

Zn       7.75       6.47       6.62
Si       3.86       6.47       6.61
H       5.70       7.46       4.76
H       4.97       7.51       2.44
H       8.77       5.67       1.38
H       6.74       7.27      11.85
H      10.54       5.45      10.79
H       9.81       5.49       8.47
H      11.11       5.90      12.81
H       4.40       7.04       0.42
H       5.70       4.60       7.56
H       4.97       2.28       7.55
H       8.77       1.26       5.70
H       6.74      11.69       7.54
H      10.53      10.67       5.67
H       9.81       8.35       5.66
H      11.10      12.68       6.18
H       4.40       0.26       7.05
C       6.36       7.08       3.99
C       5.95       7.09       2.66
C       6.80       6.57       1.66
C       8.05       6.09       2.08
C       8.35       6.11       3.44
C       6.44       6.49       0.25
C       9.07       6.46      12.98
C       7.46       6.86      11.15
C       8.72       6.38      11.57
C       9.56       5.86      10.57
C       9.15       5.87       9.25
C       7.16       6.83       9.79
C       6.36       3.83       7.16
C       5.95       2.51       7.15
C       6.79       1.52       6.60
C       8.04       1.95       6.13
C       8.35       3.30       6.18
C       6.43       0.11       6.49
C       9.07      12.83       6.74
C       7.47      11.00       7.11
C       8.71      11.42       6.63
C       9.55      10.44       6.08
C       9.15       9.11       6.07
C       7.16       9.64       7.06
N       7.55       6.57       4.40
N       7.96       6.38       8.84
N       7.55       4.25       6.66
N       7.96       8.69       6.57
F       5.65       6.64       6.78
F       9.86       6.31       6.45
F      11.64       7.70       5.42
F       3.86       5.25       7.81
F       4.11       5.31       5.43
F      11.40       7.63       7.80
F       9.54       5.63       3.82
F       5.96       7.31       9.42
F       9.54       3.69       5.71
F       5.97       9.25       7.53
