104

Zn       6.14       5.45      14.49
Zn       3.40       5.45      14.47
Zn       3.44       5.51       3.43
Zn       6.18       5.51       3.45
H       8.30       3.97      13.03
H       1.24       6.93      15.95
H       1.25       3.98      13.03
H       8.29       6.93      15.94
H       2.60       1.18      14.49
H       6.90       9.72      14.52
H       2.61       9.70      14.56
H       6.89       1.20      14.50
H       2.61       5.40      28.18
H       2.59       5.39      25.68
H       6.91       5.49      25.68
H       2.59       5.50      21.28
H       6.88       5.41      18.77
H       6.91       5.40      21.27
H       6.94       5.51      10.21
H       2.64       5.52       7.71
H       6.93       5.54       7.70
H       2.65       5.52      10.22
H       1.28       4.02       4.88
H       8.34       6.99       1.96
H       8.32       4.03       4.87
H       1.28       6.99       1.98
H       6.98       1.24       3.42
H       2.68       9.78       3.40
H       6.97       9.75       3.36
H       2.69       1.26       3.41
C       4.76       8.07      14.56
C       4.79       5.45      17.12
C       4.73       2.84      14.46
C       4.79       5.48      11.86
C       4.81       8.12       3.37
C       4.78       5.51       0.80
C       4.84       2.89       3.45
C       4.78       5.53       6.06
C       8.88       4.63      13.67
C       0.66       6.28      15.30
C       0.66       4.63      13.67
C       8.88       6.28      15.29
C       4.74       1.34      14.49
C       4.76       9.56      14.54
C       3.53       0.63      14.50
C       5.97      10.27      14.52
C       3.54      10.26      14.54
C       5.95       0.64      14.50
C       4.74       5.47      28.34
C       3.54       5.43      27.61
C       3.53       5.42      26.23
C       4.74       5.44      25.50
C       5.96       5.47      26.22
C       5.93       5.50      27.60
C       4.75       5.43      24.09
C       4.75       5.43      22.87
C       4.76       5.45      21.45
C       3.54       5.49      20.74
C       3.56       5.52      19.35
C       4.76       5.48      18.62
C       5.96       5.44      19.34
C       5.97       5.43      20.73
C       4.79       5.50      10.36
C       4.79       5.52       7.56
C       6.00       5.51       9.65
C       3.58       5.52       8.27
C       6.00       5.53       8.26
C       3.58       5.51       9.66
C       0.69       4.68       4.24
C       8.92       6.34       2.62
C       8.92       4.68       4.24
C       0.70       6.33       2.62
C       4.83       1.40       3.43
C       4.82       9.62       3.38
C       6.04       0.68       3.42
C       3.61      10.33       3.40
C       6.04      10.32       3.38
C       3.62       0.70       3.41
N       8.20       5.45      14.48
N       1.34       5.46      14.48
N       1.37       5.51       3.43
N       8.24       5.51       3.43
N       7.26       5.62      28.26
N       2.24       5.64      18.70
O       5.89       7.49      14.43
O       3.64       7.47      14.69
O       3.68       5.26      16.52
O       5.93       5.60      16.57
O       3.61       3.41      14.31
O       5.85       3.43      14.60
O       5.92       5.35      12.44
O       3.66       5.61      12.44
O       3.68       7.54       3.49
O       5.94       7.53       3.24
O       5.89       5.32       1.40
O       3.65       5.66       1.36
O       5.97       3.47       3.61
O       3.72       3.49       3.31
O       3.66       5.40       5.47
O       5.91       5.66       5.48
O       7.59       6.75      28.65
O       7.97       4.61      28.29
O       1.91       6.77      18.32
O       1.53       4.63      18.66
