91

Al       1.21      17.61      10.20
H       3.10      15.50      13.88
H       3.00      13.41      15.18
H       2.69      32.91      17.03
H       3.12      19.73       3.98
H       3.99      19.33       2.15
H       5.08      31.12      20.10
H       3.94      31.50      18.23
H       2.74      15.52       6.55
H       2.66      15.43       4.09
H       2.58      27.61      20.06
H       3.23      21.95      15.13
H       4.47      23.62      15.63
H       4.69      25.69      16.93
H       3.66      27.21      18.23
H       3.00      21.86      10.19
H       3.13      24.03      11.35
H       2.25      27.72      14.02
H       2.80      11.18      11.50
H       3.95       9.77      12.72
H       5.01      31.11      13.88
H       3.65      29.37      14.52
H       3.28      18.67      13.63
H       2.93      19.55      15.03
H       3.07      14.11       9.40
H       2.56      12.50       9.48
H       3.62      20.02       7.54
H       3.19      20.86       6.11
H       5.35      24.80      12.19
H       5.04      26.41      12.51
H       1.14      12.51      15.39
H       4.62      11.49      16.64
H       0.95      15.79       3.14
H       4.48      15.23       1.62
C       3.16      15.82      11.24
C       3.16      19.41      11.22
C       3.16      17.60       8.13
C       3.06      14.54      13.36
C       2.98      13.36      14.10
C       2.11      10.72      15.43
C       2.11       9.49      16.09
C       3.28      18.83       5.92
C       3.07      18.79       4.53
C       3.39      18.60       1.61
C       3.37      18.65       0.22
C       3.11      14.53      11.97
C       2.87      12.12      13.43
C       2.78      10.85      14.18
C       3.85      31.86      15.55
C       3.81      30.58      16.29
C       3.86      30.56      17.69
C       2.85      16.44       5.97
C       2.77      16.40       4.58
C       2.03      16.60       1.61
C       2.05      16.64       0.21
C       3.27      20.70      13.39
C       3.21      21.95      14.04
C       3.94      24.51      15.30
C       4.06      25.68      16.04
C       3.11      17.63       6.65
C       2.84      17.59       3.83
C       2.73      17.59       2.35
C       3.83      29.36      19.89
C       3.81      29.36      18.41
C       3.70      28.15      17.69
C       3.07      21.89      11.28
C       3.11      23.12      11.94
C       2.60      25.64      13.63
C       2.76      26.82      14.37
C       3.06      13.29      11.28
C       2.91      12.12      12.03
C       3.38       9.69      13.65
C       3.35       8.46      14.30
C       3.17      20.68      11.98
C       3.16      23.16      13.35
C       3.22      24.44      14.09
C       3.48      26.87      15.56
C       3.64      28.14      16.29
C       3.70      29.36      15.61
N       3.41      19.54      14.14
N       3.14      13.22       9.89
N       3.60      20.03       6.52
N       1.83      25.69      12.47
N       1.46      11.79      16.04
N       1.30      15.57       2.22
O       4.09      18.26       8.72
O       4.10      16.00      10.39
O       4.09      18.56      11.49
O       2.26      16.93       8.75
O       2.25      19.23      10.34
O       2.26      16.69      11.51
