246

Cu      28.41      27.82      28.02
Cu      26.13      29.87      27.45
Cu      25.64      27.60      29.60
Cu       3.61      27.00       7.12
Cu       6.09      28.97       6.86
Cu       5.61      26.63       4.73
Cu       5.18       7.91      27.22
Cu       7.39       5.63      27.48
Cu       6.92       7.84      29.79
Cu      26.39       7.25       7.70
Cu      24.75       4.58       7.78
Cu      24.16       6.80       5.52
H      30.67      28.94      26.04
H      27.26      31.35      24.87
H      26.16      24.99      31.33
H      30.10      25.69      29.66
H      24.21      32.11      28.57
H      23.27      28.85      31.27
H       1.94      28.51       9.34
H       5.54      30.94       9.30
H       4.46      24.00       3.37
H       1.49      24.73       6.44
H       8.30      30.66       5.38
H       7.34      27.74       2.33
H       3.57       6.86      24.77
H       6.62       3.80      24.98
H       5.52      10.09      31.56
H       2.95       9.99      28.07
H       9.38       3.68      28.97
H       8.53       6.52      32.13
H      28.51       6.70       9.96
H      26.15       3.08      10.22
H      24.89       9.10       3.44
H      28.03       9.58       6.38
H      23.28       2.11       6.45
H      22.09       5.27       3.73
H      16.24       1.52       1.16
H      17.08      32.37      33.71
H      15.23       1.01      32.88
H      14.51      32.87       1.86
H      20.12      33.89       0.07
H      11.52      34.22      34.64
H       3.33       1.37      18.12
H      30.45      33.65      18.40
H       3.26      33.73      16.22
H      30.14       1.36      16.74
H       1.69       0.40      21.98
H       0.75       0.54      12.78
H       0.98      17.42       1.19
H      28.80      18.10      33.89
H      27.94      15.75       0.72
H       1.76      16.22      34.03
H      30.11      21.30       0.51
H      30.64      12.43      34.50
H      28.72      31.98      22.78
H       0.90      32.57      22.55
H      31.25      31.02      24.26
H      29.42      33.26      20.67
H       4.53      31.92      11.63
H       1.57      32.58      12.34
H       1.77      30.85      10.81
H       4.16      33.40      13.79
H       5.49       3.01      22.55
H       2.43       2.71      22.08
H       2.96       4.52      23.43
H       4.75       1.53      20.44
H      27.54       2.77      12.55
H      30.65       2.76      12.65
H      29.75       4.49      11.28
H      28.60       1.50      14.57
H      27.30      22.72      32.31
H      30.21      22.23      33.29
H      30.07      23.93      31.76
H      27.72      20.45      33.63
H      26.05      11.35       2.33
H      29.10      11.91       2.02
H      28.59      10.69       3.93
H      26.72      13.37       0.72
H       3.12      21.71       3.02
H      30.91      21.50       2.64
H       0.66      23.06       4.30
H       2.29      19.63       1.68
H       4.00      12.18      32.24
H       0.89      12.28      32.31
H       1.78      11.06      30.43
H       3.02      14.01      33.70
H      21.29      30.40      32.03
H      21.24      33.45      32.66
H      22.76      32.85      30.86
H      19.31      31.17      33.39
H      11.20       2.76      30.66
H      11.10       2.29      33.74
H       9.74       4.15      32.99
H      13.07       1.32      31.57
H      20.28       3.57       2.97
H      20.48       0.55       2.25
H      21.98       1.24       4.07
H      18.39       2.72       1.60
H      10.28      31.26       3.78
H      10.33      31.76       0.71
H       8.75      30.03       1.41
H      12.27      32.55       2.97
C      29.71      29.42      25.92
C      29.32      30.43      25.01
C      27.96      30.64      25.30
C      27.03      25.31      30.77
C      28.37      24.87      30.85
C      29.05      25.69      29.93
C      24.12      31.17      29.11
C      23.35      30.87      30.25
C      23.62      29.50      30.47
C       2.92      28.96       9.17
C       3.49      30.09       9.78
C       4.76      30.19       9.16
C       3.88      24.33       4.23
C       2.62      23.89       4.67
C       2.35      24.72       5.78
C       7.96      29.82       4.79
C       8.20      29.51       3.44
C       7.44      28.34       3.23
C       4.43       6.23      24.99
C       4.81       5.01      24.41
C       6.00       4.68      25.08
C       5.06       9.95      30.59
C       3.82      10.42      30.11
C       3.74       9.87      28.82
C       9.07       4.52      29.59
C       9.29       4.74      30.97
C       8.62       5.96      31.21
C      27.78       5.91       9.87
C      27.73       4.66      10.53
C      26.56       4.07      10.02
C      25.54       9.08       4.31
C      26.76       9.76       4.53
C      27.15       9.31       5.81
C      23.10       3.04       5.91
C      22.35       3.26       4.75
C      22.48       4.65       4.54
C      16.81       0.72       0.66
C      16.23      33.86       0.01
C      17.62      33.17      34.23
C      19.03      33.19      34.20
C      19.03      33.88       0.05
C      18.21       0.73       0.73
C      15.41      34.19      34.80
C      14.64       0.57      33.69
C      13.24       0.64      33.64
C      12.61      34.21      34.68
C      12.58      33.27       0.93
C      13.99      33.31       1.00
C       2.54       0.93      18.73
C       1.39       0.43      18.10
C      31.33      34.07      18.89
C       0.58      33.99      20.29
C       1.60       0.40      20.89
C       2.64       0.97      20.13
C       1.24       0.47      16.63
C       2.36      34.16      15.79
C       2.17      34.12      14.40
C       0.89       0.52      13.86
C      30.75       1.05      14.69
C      30.92       0.96      16.08
C       0.19      18.05       0.77
C      29.97      17.44       0.12
C      29.61      18.57      34.44
C      29.68      19.97      34.53
C      30.07      20.22       0.40
C       0.22      19.44       0.97
C      30.62      16.30      34.80
C      28.81      15.23       0.30
C      28.83      13.83       0.26
C      30.63      13.51      34.57
C       0.89      14.24      34.15
C       0.89      15.64      34.33
C      30.18      31.12      24.08
C      29.79      31.89      23.03
C      30.72      32.61      22.22
C      30.44      33.28      21.07
C       2.86      30.94      10.75
C       3.44      31.83      11.60
C       2.66      32.63      12.49
C       3.10      33.39      13.53
C       4.03       4.26      23.45
C       4.43       3.27      22.62
C       3.48       2.53      21.83
C       3.73       1.68      20.81
C      28.73       4.10      11.41
C      28.55       3.13      12.33
C      29.65       2.52      13.03
C      29.57       1.68      14.10
C      28.98      23.87      31.69
C      28.38      22.87      32.38
C      29.15      21.97      33.19
C      28.74      20.82      33.78
C      27.53      10.62       3.67
C      27.11      11.33       2.59
C      28.04      12.09       1.80
C      27.75      13.06       0.90
C       1.73      22.93       4.08
C       2.06      21.92       3.23
C       1.07      21.15       2.53
C       1.29      20.07       1.74
C       2.80      11.17      30.80
C       2.99      11.98      31.88
C       1.90      12.61      32.58
C       2.02      13.60      33.50
C      22.54      31.79      31.02
C      21.57      31.46      31.91
C      20.86      32.43      32.70
C      19.75      32.18      33.43
C       9.98       3.93      31.94
C      10.89       2.95      31.69
C      11.51       2.17      32.72
C      12.59       1.37      32.56
C      21.66       2.28       3.94
C      20.66       2.55       3.06
C      20.03       1.55       2.24
C      18.89       1.75       1.52
C       8.99      30.22       2.46
C       9.98      31.10       2.74
C      10.71      31.83       1.74
C      11.84      32.55       1.97
N      27.57      29.82      26.30
N      28.65      29.06      26.68
N      28.18      26.54      29.34
N      26.93      26.31      29.87
N      24.48      29.04      29.55
N      24.78      30.07      28.69
N       4.91      29.20       8.26
N       3.77      28.43       8.27
N       3.37      25.58       5.97
N       4.32      25.34       5.00
N       6.81      27.98       4.36
N       7.13      28.90       5.33
N       6.30       5.63      25.99
N       5.32       6.60      25.93
N       4.83       9.14      28.55
N       5.65       9.18      29.65
N       8.06       6.42      30.07
N       8.33       5.52      29.07
N      25.98       4.89       9.13
N      26.73       6.04       9.04
N      26.25       8.44       6.30
N      25.25       8.29       5.36
N      23.25       5.20       5.50
N      23.63       4.19       6.36
