117

Co      10.93       5.32       0.00
Co      10.93       5.59       9.67
Co      10.93      -2.66       4.61
H       0.00      10.02       3.02
H       0.00       5.85       4.09
H       0.00       8.86       7.17
H      10.93      -2.39      10.18
H      10.93       1.77      11.25
H      10.93       0.62       7.11
H      10.93       9.49      12.12
H       0.00      13.99       0.00
H      10.93       1.25       2.16
H       4.47       5.38       2.17
H       6.47       7.43       8.53
H       4.47      11.92       3.58
H       6.47       5.38       2.17
H       4.47       7.43       8.53
H       6.46      11.92       3.58
H       4.47      -0.81       5.75
H       6.47      -2.87      12.11
H       4.47       3.68      10.70
H       6.47      -0.81       5.75
H       4.47      -2.87      12.11
H       6.47       3.68      10.70
H       2.00       5.35       2.07
H       8.94       7.36       8.61
H       2.00      12.02       3.61
H       8.94       5.35       2.07
H       2.00       7.36       8.61
H       8.93      12.02       3.61
H       2.00      -0.88       5.67
H       8.94      -2.89      12.21
H       2.00       3.78      10.67
H       8.94      -0.88       5.67
H       2.00      -2.89      12.21
H       8.94       3.78      10.67
C      10.93       1.41       0.00
C      10.93       7.54      13.06
C      10.93      15.78       1.22
C       0.00       7.90       3.41
C       0.00       7.24       5.73
C       0.00       9.59       5.14
C      10.93      -1.00       8.55
C      10.93      -0.34      10.87
C      10.93       1.34       9.13
C       0.00       9.25       3.80
C       0.00       6.90       4.37
C       0.00       8.57       6.12
C      10.93      -1.34       9.91
C      10.93       1.01      10.48
C      10.93       0.33       8.16
C      10.93       8.94      13.06
C      10.93      15.08       0.00
C      10.93       0.70       1.22
C       3.98       5.37       1.20
C       6.95       6.59       9.03
C       3.99      12.77       4.06
C       6.95       5.37       1.20
C       3.98       6.59       9.03
C       6.95      12.77       4.06
C       3.98      -1.65       5.25
C       6.95      -2.87      13.09
C       3.98       4.52      10.22
C       6.95      -1.65       5.25
C       3.98      -2.87      13.09
C       6.95       4.52      10.22
C      10.93      -5.34      14.28
C      10.93       6.79      11.76
C       0.00      15.03       2.52
C       2.60       5.35       1.16
C       8.33       6.57       9.06
C       2.60      12.81       4.06
C       8.33       5.35       1.16
C       2.60       6.57       9.06
C       8.33      12.81       4.06
C       2.60      -1.67       5.22
C       8.33      -2.89      13.12
C       2.60       4.56      10.22
C       8.34      -1.67       5.22
C       2.60      -2.89      13.12
C       8.33       4.56      10.22
C       4.73       5.38       0.00
C       6.21       5.55       9.62
C       4.73      -2.69       4.66
C       6.21       5.38       0.00
C       4.73       5.55       9.62
C       6.21      -2.69       4.66
C      10.93       7.66       1.92
C      10.93       6.08       6.69
C      10.93      11.00       5.68
C       0.00      -2.17       7.59
C       0.00      -0.59      12.36
C       0.00       2.75       8.60
N       1.91       5.34       0.00
N       9.02       5.57       9.65
N       1.91      -2.67       4.63
N       9.02       5.34       0.00
N       1.91       5.57       9.65
N       9.02      -2.67       4.63
O       0.00       6.37       1.59
O       0.00       6.44       7.97
O       0.00      11.93       4.73
O      10.93      -1.81       6.31
O      10.93      -1.87      12.69
O      10.93       3.68       9.55
O      10.93      -4.66      13.19
O      10.93       5.50      11.72
O       0.00      -0.85       3.65
O       0.00      13.75       2.56
O       0.00       3.59       1.09
O       0.00       7.39      10.63
O      10.93       8.64       1.20
O      10.93       4.96       6.20
O      10.93      11.12       6.89
O       0.00      -3.29       8.08
O       0.00       0.40      13.08
O       0.00       2.88       7.38
