46

Al      -2.80       4.50       6.12
Al       0.53       4.45       6.14
H      -1.08       6.08       6.78
H       2.16       3.78       4.52
H       3.35       4.24       1.93
H       0.08       7.38       4.41
H       3.28       1.74       4.67
H       0.65       0.41       6.96
H      -2.57       8.52       6.88
H      -1.11       4.50      10.68
H      -1.89       4.71       9.13
C       2.22       6.91       5.96
C       2.16       4.19       8.50
C      -1.21       2.09       6.13
C      -1.10       4.64       3.70
C      -3.12       4.09      10.63
C       4.29       4.60       1.49
C       2.32       3.90       9.89
C      -1.20       4.81       2.25
C       4.51       4.91       0.14
C      -3.34       3.72      12.00
C       2.19       8.40       5.87
C       1.12       9.11       5.24
C      -3.39       9.09       6.45
C       0.10       8.47       4.49
C      -0.87       9.19       3.82
C      -1.24       0.61       5.98
C      -0.18      -0.12       6.50
C       4.32      -0.06       5.30
C       3.31       0.65       4.62
C       2.34       0.00       3.88
S       1.01       3.23      10.84
S       0.14       5.39       1.31
N      -1.97       4.61      10.15
Cl      -2.07       8.36       2.90
Cl       1.16       0.93       3.03
O      -3.27       6.35       5.83
O       1.01       4.05       7.94
O      -0.09       2.66       5.96
O      -2.19       4.34       4.30
O      -2.30       2.68       6.43
O       0.04       4.79       4.25
O       1.13       6.30       6.22
O       3.20       4.62       7.88
O      -1.12       5.11       6.70
O       2.18       3.92       5.48
