68

Al       5.78       8.72       8.67
Al       2.43       8.70       8.63
H       7.46       9.90       7.32
H       4.08       8.00      10.23
H       2.75       4.76       7.90
H       2.93       2.25       7.93
H       5.54       2.02       9.22
H       5.92      15.46       9.37
H       8.56      15.15       8.00
H       8.77      12.64       8.02
H       6.34       8.38       4.78
H       6.54       8.33       2.29
H       2.05       8.35       4.47
H       9.58       9.06      12.83
H       5.28       9.13      12.57
H       5.12       9.20      15.05
H       4.95       5.62       9.12
H       4.29       4.04       9.48
H       6.51      11.87       9.44
H       7.18      13.46       9.73
H       2.28       8.30       0.90
H       9.40       9.15      16.40
C       4.10       8.49       6.24
C       4.12      11.15       8.70
C       7.49       8.93      11.07
C       7.44       6.29       8.60
C       7.43       4.81       8.58
C       1.91       4.14       8.22
C       2.02       2.77       8.23
C       7.60       2.02       8.63
C       6.40       2.64       8.95
C       6.27       4.05       8.94
C       5.08      14.82       9.10
C       3.88      15.43       8.72
C       9.47      14.65       8.33
C       2.90      13.28       8.34
C       4.08      12.62       8.74
C       5.21      13.41       9.13
C       4.19       8.39       4.76
C       5.45       8.37       4.15
C       5.56       8.34       2.77
C       4.40       8.34       1.97
C       3.13       8.33       2.60
C       3.02       8.35       3.98
C       4.43       8.37       0.56
C       7.25       9.12      16.76
C       7.26       9.14      15.35
C       8.53       9.13      14.71
C       8.61       9.09      13.32
C       7.44       9.06      12.56
C       6.18       9.12      13.19
C       6.09       9.16      14.57
N       7.57       0.60       8.69
N       3.90      16.84       8.72
N       5.09       4.63       9.31
N       6.38      12.87       9.56
O       5.21       8.65       6.86
O       3.01      10.53       8.52
O       8.63       8.93      10.50
O       6.30       6.89       8.57
O       6.37       8.81      10.48
O       8.57       6.88       8.66
O       2.95       8.44       6.79
O       5.26      10.57       8.81
O       7.46       9.29       8.07
O       4.11       8.15       9.27
O       1.99       8.31       1.84
O       9.67       9.14      15.46
