114

Al      -0.38       3.38       8.27
Al       2.96       3.21       8.30
Al       5.41      10.02       0.06
Al       2.04      10.12       0.08
H       3.95       8.32      10.02
H       4.77       2.78      12.85
H      -1.42      -0.86      15.81
H       4.98       4.64      12.71
H      -1.32      -5.35      15.45
H       4.07      -2.60      10.31
H      -1.29      -3.30      15.63
H      -1.66       1.33      14.83
H       0.15       0.66       5.38
H       5.22      -0.85       3.18
H       1.54      -0.60       3.66
H       2.09      -5.51      15.64
H       1.92      -1.06      15.24
H       1.24       2.28      12.61
H       1.22      -1.45       9.73
H       1.90       5.57      14.60
H       1.92       4.15      12.58
H       0.84       7.52      10.15
H       1.94      -3.07      15.44
H       1.20      -3.88       9.98
H       1.21       0.77      10.66
H       1.61       7.41       3.13
H       3.41       5.89       5.20
H       0.35       5.98       4.79
H      -1.07      -1.60       9.74
H       4.07      -0.90       9.32
H       5.54       0.08       9.23
H       4.76       4.96      10.40
H       3.65       6.26       9.99
H      -1.33       6.48       9.78
H       1.19       1.61       7.76
H       4.54       4.88       7.54
H       3.79      11.76       0.53
H       0.42       8.38       0.54
C       1.35       4.88      10.04
C       1.26       4.80       6.38
C       4.64       1.59       6.57
C       4.76       1.98      10.24
C      -1.73       6.21      14.20
C       4.80       1.12      11.46
C       4.72       6.55      11.82
C       4.91       5.71      12.89
C      -1.43      -5.72      14.43
C       5.11      -4.81      13.35
C       4.60       7.94      12.05
C       5.08      -3.36      13.48
C       4.85      -2.55      12.33
C       4.49      -3.18      11.12
C       4.24       8.77      10.97
C      -1.47      -2.71      14.74
C      -1.53      -1.34      14.84
C      -1.70      -0.51      13.69
C       4.90      -1.11      12.40
C      -1.75       0.89      13.84
C       4.83       1.70      12.73
C       4.87      -0.25      11.25
C       0.60      -0.89       3.19
C       6.13      -0.51       3.69
C       4.80       0.69       5.39
C       5.98       0.30       4.87
C       1.35       5.76      11.25
C       1.61       0.69      14.05
C       1.68       6.01      13.63
C       1.67       5.21      12.51
C       1.10       7.12      11.13
C       1.22       7.99      12.25
C       1.48       7.41      13.52
C       1.47      -3.87      12.14
C       1.64      -3.04      13.29
C       1.83      -3.68      14.55
C       1.91      -5.04      14.66
C       1.31      -3.26      10.86
C       1.32      -1.90      10.72
C       1.43      -1.04      11.84
C       1.61      -1.59      13.15
C       1.34       0.36      11.67
C       1.38       1.21      12.75
C       1.73      -0.68      14.24
C       1.31       5.72       5.23
C       2.47       6.20       4.73
C       3.68       7.54       3.05
C       2.53       7.08       3.60
C       3.76       8.46       1.88
C       1.67       1.72      15.15
C      -1.67       5.14      15.25
C       0.36      11.58       1.97
C       5.04      -0.70       9.81
C       4.63       6.04      10.43
O       2.35       4.54       7.00
O       0.33       4.84       9.28
O      -0.89       2.59       9.92
O       0.11       4.33       6.67
O       5.72       1.86       7.19
O       2.41       4.20       9.84
O       1.26       2.42       8.29
O       3.47       1.99       6.85
O       3.68       2.00       9.56
O       4.62       4.10       8.12
O       0.59       2.36      15.39
O       4.91       8.88       1.57
O       6.00      11.34       1.34
O       2.78       1.94      15.73
O       3.98       4.48      15.44
O       2.65       8.72       1.31
O       3.74      10.88       0.12
O      -0.56       4.88      15.81
O       1.53      11.17       1.64
O       0.38       9.23       0.08
F       3.62       0.31       4.82
F       4.88       7.19       3.58
