202

Al       4.58      17.53      22.58
Al       1.13       5.79       7.61
Al       1.26      17.36      22.58
Al       4.43       5.98       7.48
H       1.47      15.61      26.32
H       4.35       7.82       3.78
H       1.32       1.31      12.54
H       3.27      22.93      18.62
H       4.74       2.47       1.93
H       0.84      20.44      28.38
H       0.49      23.16      28.48
H       4.83       0.05       1.69
H       3.61      16.03      17.84
H       1.53       7.19      10.33
H       1.54       9.29      29.41
H       4.51      14.31      29.49
H       5.10       5.16      10.57
H       5.94       4.46      11.94
H       1.60      17.50      18.96
H       1.08      17.86      17.41
H       5.98       2.00      13.75
H      -0.15       2.47      12.16
H       1.82      19.81      15.09
H       2.28      18.34      15.84
H       0.81       3.33       9.79
H       4.08      20.75      21.25
H       1.56      23.51      12.02
H       4.79      22.74      17.61
H       0.54      21.63      13.96
H       5.61       1.46      16.16
H       4.87       4.42       4.85
H       0.15      18.81      27.02
H       0.15       0.77       3.85
H       4.59      -0.24      27.70
H       4.15      14.29      15.65
H       3.18      13.82      16.89
H       1.79       9.50      14.28
H       2.40       8.31      13.15
H       6.31       2.67       4.56
H       0.56       2.97       5.90
H       5.47      21.90      25.22
H       5.05      20.45      24.34
H       6.24       0.85      29.76
H       0.28       1.48       1.15
H       4.92      21.54      29.02
H       5.80      22.43       0.29
H       1.55      12.06      17.14
H       3.54      10.86      11.40
H       2.56      13.68      19.63
H       1.95      14.93      20.71
H       3.97       8.99       9.19
H       3.02       8.93      10.52
H       3.45      13.38      25.41
H       2.46       9.81       4.85
H       4.04      11.77      27.83
H       3.08      13.09      27.61
H       2.84      10.24       2.64
H       1.93      11.62       2.69
H       1.47      13.65      29.30
H       4.49       9.92       0.94
H       0.98      11.54      27.37
H       4.43      13.26       2.02
H       3.04      15.88      23.34
H       2.61       7.45       6.82
H      -0.24      19.02      23.26
H       5.94       4.27       8.19
C       2.85      18.86      20.66
C       2.89       4.38       9.49
C       2.90      19.06      24.41
C       2.77       4.19       5.76
C      -0.39      15.91      24.46
C       6.17       7.39       5.67
C      -0.49      15.95      20.73
C       6.13       7.53       9.38
C       5.14      15.19      18.55
C       0.55       8.33      11.48
C       5.07      14.30      17.48
C       0.56       9.04      12.71
C       6.13      13.37      17.27
C       6.08       9.87      13.04
C       0.63      13.46      18.09
C       5.02       9.95      12.10
C       0.68      14.32      19.22
C       4.98       9.18      10.93
C      -0.44      15.16      19.49
C       6.10       8.36      10.60
C       6.04      10.61      14.28
C       6.05      12.31      16.28
C       5.04      14.22      25.93
C       0.84       9.06       4.31
C       5.02      13.39      27.07
C       0.90       9.95       3.22
C      -0.52      13.34      27.94
C      -0.17      10.07       2.33
C       0.60      14.16      27.66
C       5.33       9.28       2.55
C       0.61      14.98      26.54
C       5.24       8.42       3.63
C      -0.48      15.02      25.66
C       6.32       8.30       4.53
C       0.34      11.34      29.19
C       5.67      12.12       1.13
C       0.72      10.75       0.08
C       5.66      12.97       0.01
C      -0.13      11.00       1.17
C      -0.51      12.46      29.13
C       4.27       3.48      11.38
C       2.38      19.20      18.20
C       4.50       2.49      12.40
C       2.52      19.98      17.02
C       3.45       1.66      12.83
C       2.82      21.36      17.15
C       2.20       1.80      12.15
C       3.18      21.86      18.44
C       2.03       2.61      11.05
C       3.34      21.01      19.52
C       3.06       3.49      10.62
C       2.88      19.67      19.43
C       2.23      23.19      13.81
C       3.89      23.32      16.00
C       2.05      22.30      14.89
C       4.32       0.64      15.04
C       2.90      22.30      16.01
C       3.51       0.61      13.88
C       3.90       3.23       3.74
C       1.72      19.79      26.52
C       3.88       2.43       2.60
C       1.62      20.61      27.64
C       2.79       1.60       2.30
C       2.57      21.63      27.86
C       1.69       1.62       3.17
C       3.60      21.81      26.94
C       1.65       2.47       4.29
C       3.76      20.95      25.83
C       2.77       3.28       4.61
C       2.79      19.93      25.61
C       1.83       0.61       0.15
C       3.49      22.61      30.02
C       1.26      23.23      29.25
C       4.06      -0.01       0.92
C       2.45      22.52      29.05
C       2.87       0.71       1.12
N       0.51      11.59      16.02
N       4.84      11.01      14.81
N       0.52      10.73      15.02
N       4.84      11.87      15.80
N       5.28       4.37      11.17
N       1.86      17.91      18.07
N       5.80       2.51      12.89
N       2.40      19.34      15.79
N       3.93      14.46      16.63
N       1.63       8.85      13.52
N       0.50       2.36       5.08
N       4.78      21.21      24.95
N       0.68       1.39       0.22
N       4.64      21.82      29.95
N       1.79      14.23      19.99
N       3.84       9.40      10.11
N       3.87      12.57      27.23
N       2.09      10.73       3.15
O       1.84      18.78      23.77
O       3.91       4.66       6.16
O       3.88      18.90      21.43
O       1.70       4.57       9.00
O       5.07      16.51      21.07
O       0.61       6.98       9.07
O       4.08      18.67      24.08
O       1.66       4.49       6.32
O       5.17      16.21      23.89
O       0.57       7.00       6.27
O       1.79      18.21      20.94
O       3.92       4.95       8.99
O       2.95      16.58      22.67
O       2.75       6.74       7.48
O       0.77      16.29      24.13
O       4.98       7.03       6.01
O       0.58      16.01      21.45
O       5.07       7.37       8.69
O      -0.36      18.31      22.61
O       6.07       5.04       7.61
O       4.17      16.13      18.66
O       1.68       7.60      11.23
O       1.52       9.65       0.09
O       4.78      14.03       0.07
O       0.83       2.55      10.40
O       3.85      21.52      20.68
O       1.47      22.83      12.72
O       4.90      23.44      16.93
O       0.99      21.42      14.80
O       5.16       1.70      15.32
O       5.02       3.98       3.96
O       0.83      18.76      26.32
O       0.63       0.76       2.99
O       4.53      22.84      27.05
O       1.75      12.69      17.91
O       4.01      10.86      12.28
O       3.96      14.16      25.10
O       1.91       9.05       5.16
O       1.70      14.17      28.50
O       4.25       9.33       1.68
O       1.20      11.00      28.16
O       4.85      12.39       2.20
