79

Al       4.93      17.62      10.20
H       3.57      15.55      13.75
H       3.61      13.50      15.14
H       2.86      32.96      17.25
H       2.45      19.59       3.90
H       3.81      19.23       2.20
H       5.02      31.07      20.17
H       3.97      31.45      18.32
H       3.13      15.52       6.65
H       3.08      15.33       4.19
H       2.78      27.39      20.06
H       2.51      22.15      15.02
H       4.28      23.59      15.59
H       4.53      25.64      16.91
H       3.66      27.16      18.18
H       3.58      21.72      10.20
H       3.74      23.93      11.29
H       2.42      27.83      13.85
H       2.32      11.20      11.73
H       3.95       9.87      12.75
H       4.87      31.19      13.87
H       3.64      29.44      14.53
C       2.94      15.81      11.18
C       2.94      19.37      11.27
C       2.93      17.68       8.16
C       3.30      14.59      13.31
C       3.31      13.44      14.10
C       2.44      10.78      15.63
C       2.42       9.54      16.27
C       2.74      18.80       5.87
C       2.64      18.69       4.48
C       3.28      18.45       1.64
C       3.25      18.53       0.25
C       2.96      14.53      11.96
C       2.95      12.20      13.55
C       2.96      10.94      14.33
C       3.85      31.89      15.65
C       3.81      30.59      16.35
C       3.88      30.52      17.75
C       3.00      16.41       6.03
C       2.95      16.30       4.65
C       2.11      16.38       1.58
C       2.06      16.45       0.19
C       2.71      20.82      13.35
C       2.77      22.07      13.97
C       3.85      24.52      15.21
C       3.99      25.68      15.97
C       2.90      17.66       6.66
C       2.75      17.44       3.84
C       2.70      17.39       2.36
C       3.88      29.24      19.90
C       3.82      29.30      18.42
C       3.70      28.12      17.67
C       3.35      21.82      11.26
C       3.42      23.07      11.87
C       2.75      25.75      13.48
C       2.86      26.91      14.24
C       2.63      13.29      11.40
C       2.62      12.14      12.18
C       3.49       9.78      13.74
C       3.50       8.54      14.37
C       2.99      20.68      11.99
C       3.12      23.21      13.24
C       3.23      24.51      13.95
C       3.49      26.90      15.49
C       3.63      28.16      16.27
C       3.69      29.40      15.62
Br       2.18      19.31      14.39
Br       2.13      13.16       9.57
Br       2.55      20.52       6.65
Br       1.89      25.96      11.79
Br       1.68      12.21      16.65
Br       1.28      14.81       2.30
O       3.88      18.29       8.74
O       3.87      16.02      10.35
O       3.87      18.53      11.51
O       2.00      17.03       8.73
O       1.99      19.21      10.45
O       1.99      16.62      11.46
