104

Al       4.02      30.62      10.61
Al       4.02      18.37       3.54
H       1.68       8.25       6.93
H       2.34      10.37      10.61
H       1.68      16.25       7.21
H       2.34      14.13       3.54
H       0.63      10.33       5.04
H       2.13       9.46       4.83
H       3.39      13.06       9.75
H       1.89      12.79      10.61
H       0.63      14.17       9.11
H       2.13      15.04       9.31
H       3.39      11.44       4.39
H       1.89      11.71       3.54
H       1.68      26.38      10.61
H       2.34      28.50       6.93
H       1.68      22.62       3.54
H       2.34      20.50       7.21
H       0.63      23.69       9.75
H       2.13      23.96      10.61
H       3.39      26.42       5.04
H       1.89       2.79       4.83
H       0.63      25.30       4.39
H       2.13      25.04       3.54
H       3.39      22.58       9.11
H       1.89      21.71       9.31
H       1.68      32.75      14.29
H       2.34      28.50      14.29
H       1.68      28.50      21.08
H       2.34      32.75      21.08
H       0.63      33.35      17.04
H       2.13       9.46      16.38
H       3.39      27.90      17.04
H       1.89      27.29      16.38
H       0.63      27.90      18.32
H       2.13      27.29      18.98
H       3.39      33.35      18.32
H       1.89      33.96      18.98
C       2.01      30.62      12.66
C       2.01       7.90       9.59
C       2.01      28.85       9.59
C       2.01      16.60       4.56
C       2.01      20.15       4.56
C       2.01      18.37       1.49
C       1.71      10.38       5.25
C       2.31      12.90       9.60
C       1.71      14.11       8.90
C       2.31      11.60       4.54
C       1.83       9.19       7.46
C       1.88      10.39       6.75
C       2.19      10.39       9.53
C       2.14      11.60       8.85
C       1.83      15.31       6.69
C       1.88      14.11       7.40
C       2.19      14.11       4.62
C       2.14      12.90       5.30
C       2.01       9.18       8.84
C       2.01      11.61       7.44
C       2.01      15.32       5.30
C       2.01      12.89       6.71
C       1.71      23.85       9.60
C       2.31      26.36       5.25
C       1.71      25.15       4.54
C       2.31      22.63       8.90
C       1.83      26.36       9.53
C       1.88      25.15       8.85
C       2.19      27.55       7.46
C       2.14      26.36       6.75
C       1.83      22.64       4.62
C       1.88      23.85       5.30
C       2.19      21.44       6.69
C       2.14      22.64       7.40
C       2.01      27.57       8.84
C       2.01      25.14       7.44
C       2.01      21.43       5.30
C       2.01      23.86       6.71
C       1.71      33.14      16.98
C       2.31      28.11      16.98
C       1.71      28.11      18.38
C       2.31      33.14      18.38
C       1.83      31.82      14.84
C       1.88      31.84      16.23
C       2.19      29.43      14.84
C       2.14      29.41      16.23
C       1.83      29.43      20.52
C       1.88      29.41      19.13
C       2.19      31.82      20.52
C       2.14      31.84      19.13
C       2.01      30.62      14.14
C       2.01      30.62      16.95
C       2.01      18.37       0.00
C       2.01      30.62      18.42
O       2.95      29.68       9.33
O       2.95      29.99      12.07
O       2.95       7.71      10.43
O       1.07      29.04      10.43
O       1.07       7.07       9.33
O       1.07      31.26      12.07
O       2.95      19.01       2.07
O       2.95      16.79       3.72
O       2.95      19.32       4.82
O       1.07      17.74       2.07
O       1.07      19.96       3.72
O       1.07      17.43       4.82
