236

Zn      -1.49      10.72       0.04
Zn      14.33       6.94       0.16
Zn       7.62       2.83      14.31
Zn      -1.36       7.84       1.96
H       8.74      -0.23       5.72
H      -2.04      10.17       8.58
H      -0.41      10.13       9.25
H      -1.36      10.30      11.60
H      -2.01       8.88      10.75
H      -3.01      10.34      10.92
H      11.09       3.67       2.54
H      11.58       4.62       3.97
H      12.92       2.06       2.92
H      13.58       3.06       4.23
H      11.49       2.72       5.59
H       8.65      -2.01       5.56
H      12.26       1.17       5.19
H      10.81       1.69       4.31
H      -5.88       5.71      13.95
H      -6.53       5.10      12.40
H      -3.63       4.83      13.34
H      -4.27       4.20      11.82
H      -4.86       6.52      11.06
H      -3.14       6.42      11.45
H      -4.26       7.19      12.59
H       4.77       6.75      15.82
H      10.77      -0.37       7.06
H      10.74      12.47       0.93
H       3.96       5.47      13.88
H       3.39       4.16      14.92
H       1.70       5.66      15.98
H       1.48       5.65      14.22
H       2.28       7.03      15.00
H       3.15       5.52       1.37
H       3.93       7.07       0.92
H      -4.95      -1.25      15.32
H      -4.14       0.26      14.87
H      10.58      -2.11       7.27
H      -1.93      -0.99      14.74
H      -3.13      -1.69      13.64
H      -2.77      -2.50      15.18
H      11.07       5.97       0.63
H      10.30       7.54       0.27
H       9.86       5.93       2.85
H       9.08       7.46       2.43
H       7.99       6.37       0.43
H       7.56       5.51       1.92
H       8.78       4.83       0.82
H       5.44      15.26       4.88
H       2.83      13.47       0.19
H       3.74      11.94       0.24
H       2.28      13.28       2.60
H       3.05      11.69       2.68
H       5.28      12.70       2.12
H       4.59      13.46       3.57
H       4.55      14.31       2.01
H      -2.94      14.99       2.42
H      -1.66      14.36       3.49
H      -4.66      13.72       3.71
H      12.35      -1.55       5.54
H      -3.40      13.04       4.75
H      -2.81      15.33       5.60
H      -4.53      14.98       5.89
H       1.55      -1.76       4.56
H       5.94      -3.32      12.42
H       5.91      -4.19      13.98
H       3.84      -3.01      14.65
H       3.94      -1.95      13.24
H       3.56      -3.87      11.70
H       2.25      -3.78      12.88
H      11.10      -0.81       4.52
H       3.51      -5.01      13.06
H      -2.81       8.53       6.79
H      -4.35       7.73       6.39
H      -3.22      10.18       4.92
H      -4.80       9.44       4.63
H      -5.49      10.05       7.02
H      -5.04      11.48       6.07
H      -3.90      10.82       7.25
H       8.52       0.43       9.80
H      10.18       1.06      10.03
H      -2.38      12.46       9.61
H       7.66       2.71       9.42
H       9.26       3.41       9.73
H      10.19       2.19       7.72
H       8.84       3.24       7.26
H       8.58       1.49       7.42
H       6.35       0.16       5.99
H       5.02      -0.06       7.15
H       4.65       0.21       4.12
H       3.36       0.11       5.33
H       4.16       2.28       6.37
H      -0.67      12.41      10.15
H       3.73       2.51       4.67
H       5.44       2.39       5.14
H       2.97      12.50      11.25
H       8.18      -3.59      10.98
H       4.37      12.54       9.14
H       9.65      -3.54       8.97
H      10.83      -3.04      11.11
H      11.88      -3.97      10.02
H      11.10      -4.76      11.40
C      -9.02       6.55      14.89
C       1.91      14.01       7.27
C       5.83      -2.40       6.82
C       1.29      13.68       8.71
C      -0.51      12.52       4.62
C       6.26      -1.22      11.13
C      -0.13      13.52       8.02
C       7.26      -2.25       7.53
C       0.50      13.87       6.61
C       6.58      -2.57       8.92
C       0.09      13.16       5.46
C       9.99      -1.45      14.73
C       6.61      -1.83      10.12
C      13.45       5.43       5.39
C      -6.86       2.93      10.94
C      13.69       5.56       2.84
C      -7.10       3.01      13.44
C      13.14       4.96       6.49
C      -6.37       3.36       9.89
C      12.81       4.41       7.66
C      -5.94       3.88       8.74
C       3.84       9.59       1.08
C      13.92       5.95       4.19
C      10.17      10.08       1.32
C       5.06       9.69       1.23
C       8.95      10.06       1.44
C       6.38       9.83       1.36
C       7.61       9.97       1.45
C       8.09       8.43      13.84
C      -6.99      -3.54      14.79
C       7.72       9.61      13.82
C      -6.50      -4.61      14.43
C       7.28      10.86      13.91
C      -7.50       2.61      12.13
C      12.43      -5.81      14.11
C      12.48      10.66       0.35
C       1.62       8.37       1.16
C      -0.96      10.26       3.65
C       6.07       0.87      12.54
C      12.20       8.65       1.25
C       1.52      10.55       0.70
C      -2.02      11.89       2.63
C       6.37      -1.00      13.65
C      -3.47       6.93       4.06
C      11.52       9.88       1.05
C       9.66       2.01      12.36
C       7.77       5.92      13.57
C      -0.70       5.08       0.60
C       8.42       7.09      14.03
C      -7.55      -2.38      15.32
C       8.96      -1.19       6.23
C      10.44      -1.29       6.55
C      11.28      -1.56       5.30
C      -1.38      12.03       9.40
C      -1.42      10.51       9.43
C       2.46       9.51       0.95
C      -1.98       9.98      10.75
C      11.95       3.96       3.17
C      12.65       2.74       3.74
C      11.75       2.04       4.76
C      -5.76       4.95      13.16
C      -4.38       5.01      12.55
C      -4.14       6.36      11.88
C       4.49       5.69      15.95
C       3.52       5.25      14.86
C       2.17       5.94      15.03
C      -1.13      11.66       3.70
C       3.02       6.47       0.82
C      -3.99      -0.71      15.38
C      -2.89      -1.52      14.70
C      10.64       6.87       1.08
C       9.49       6.53       2.01
C       8.40       5.76       1.25
C       2.91      12.50       0.69
C       3.10      12.68       2.19
C       4.46      13.32       2.49
C      -2.66      14.15       3.07
C       6.12      -0.52      12.34
C      -3.68      13.93       4.18
C      -3.77      15.14       5.11
C       5.63      -3.25      13.47
C       4.14      -2.98      13.59
C       3.32      -3.97      12.76
C      -3.53       8.35       5.99
C      -4.05       9.65       5.41
C      -4.66      10.55       6.50
C       9.11       1.30      10.12
C       8.74       2.53       9.32
C       5.17      -2.75       8.21
C       9.11       2.35       7.85
C       5.32      -0.22       6.10
C       4.38       0.49       5.15
C       4.43       2.00       5.34
C       2.87      13.28      10.48
C       4.17      13.46       9.71
C      10.96      -4.01      10.61
Br      -7.67       7.50      15.77
Br       9.44      -1.47      12.95
Br       3.55      -2.03       8.90
Br       3.39      13.13       6.42
Br       0.15       9.20       4.73
Br       5.56       2.17      11.28
Br       6.38       5.83      12.33
Br       0.27       4.34       2.02
N      -9.12       5.22      14.97
N       0.28      10.07       0.76
N      -2.30      10.73       1.97
N       6.57       0.03      14.49
N      -3.11       7.05       2.78
N       9.35       2.05      13.68
N       8.28       4.82      14.13
N      -1.40       6.20       0.74
N       9.63      -0.48      15.61
N      14.54       6.20       2.02
N      -8.03       2.67      14.34
N      13.62       9.94       0.16
N       0.33       8.71       1.04
N      -1.66       9.72       2.67
N       6.38       1.22      13.79
N      13.43       8.69       0.74
O       8.17      -1.23       7.45
O       6.44      -2.24      14.15
O      -2.77       7.57       5.01
O       8.78       1.44      11.53
O       5.30      -1.64       5.81
O       1.75      12.82       9.67
O      -0.97      12.45       8.08
O      12.80       4.72       2.28
O      -5.98       3.65      13.81
O       5.77       4.99      15.89
O       1.93       7.12       1.54
O      11.71       7.53       1.83
O       1.66      11.85       0.36
O      -2.59      13.02       2.17
