90

Zn       8.13       6.25       7.90
Zn       8.73       9.09       7.15
H       1.84       6.34       7.78
H      12.06      13.59       5.57
H       6.42      13.22       9.37
H      10.43       2.12       5.99
H      10.20       3.05       3.20
H       4.56       9.83      11.60
H       5.89      12.78      13.07
H      12.66       5.41       2.32
H       5.38       6.25       8.06
H      10.30      11.41       3.47
H      14.97       9.07       6.45
H       6.45       8.15       3.66
H      10.31       7.34      11.45
H       5.32       9.00       1.66
H      11.64       6.81      13.44
H       9.46       4.16       7.00
H       7.39      11.17       8.31
H       4.75       1.77       9.70
C       8.43       8.30       9.98
C      10.00       5.63       0.55
C       8.65       3.55       7.41
C       8.14      11.80       7.84
C       6.66       3.50       8.63
C      10.03      11.90       6.49
C       6.54       2.09       8.51
C      10.21      13.29       6.71
C       7.55       1.43       7.74
C       9.23      13.94       7.52
C       8.62       2.17       7.18
C       8.16       6.83       5.12
C       8.18      13.18       8.09
C       5.50       1.28       9.09
C      11.28      14.07       6.16
C      10.92       7.16       7.58
C       5.86       8.40       7.22
C       7.20      13.83       8.90
C       9.62       1.51       6.40
C       4.44       8.48       7.00
C      12.35       6.98       7.50
C       1.84       8.26       6.87
C       7.95       6.96       0.81
C      14.96       7.14       7.37
C      13.57       7.02       7.42
C       3.23       8.39       6.90
C       8.92       5.94       2.82
C       7.65       9.33      12.23
C       8.06       6.72       3.62
C       8.56       8.58      11.46
C       7.11       7.55       3.03
C       9.62       7.91      12.07
C       7.00       7.63       1.64
C       8.83       8.61      14.27
C       9.77       7.92      13.46
C       9.68       4.85       3.49
C       6.45       9.92      11.55
C       5.98      11.22      14.14
C      11.33       5.11       1.02
C       8.97       6.16       1.42
C       7.79       9.39      13.65
C       6.01       8.44       1.02
C      10.86       7.24      14.07
C       6.92      10.13      14.54
S       5.43       4.57       9.46
S      11.15      11.02       5.39
N       7.70       4.18       8.11
N       9.04      11.19       7.05
O       8.48       7.07       9.69
O       9.68       3.72       2.71
O       6.44      10.71      10.62
O       5.30       9.41      12.09
O       4.88      11.41      14.62
O       6.56      12.08      13.25
O      11.98       4.25       0.45
O      11.78       5.79       2.11
O       4.38       3.74      10.01
O       6.18       5.44      10.32
O       4.83       5.34       8.25
O       8.62       7.96       5.48
O      12.50      11.27       5.82
O      10.64       9.70       5.14
O      10.97      11.87       4.02
O       8.34       9.27       9.17
O       7.75       5.90       5.88
O      10.17       6.13       7.58
O       6.62       9.33       6.84
O      10.56       8.38       7.67
O       6.25       7.32       7.82
O      10.17       4.87       4.61
