122

Zn       9.82      21.27       7.95
Zn      18.04       9.83       7.95
Zn       9.82      18.04       7.95
Zn      19.65      11.44      10.22
Zn      11.44      19.66      10.22
Zn      19.66       8.21      10.23
Zn       8.21      19.66      10.23
Zn      21.27       9.82       7.95
H       6.86      17.98       0.01
H      12.76      17.91       0.01
H      17.91      12.76       0.01
H      11.56      16.72      18.16
H      16.72      11.57      18.16
H       9.79      16.24       0.01
H      19.69      13.24      18.16
H      13.23      19.69      18.16
H      22.62      11.50      18.16
H      16.24       9.79       0.01
H      11.49      22.62      18.16
H      17.98       6.86       0.01
C       9.83      19.65      12.69
C      19.63      28.21      17.70
C      19.65       9.83       4.04
C       9.83      19.65       4.05
C      19.65       9.83      14.13
C       9.83      19.65      14.13
C       7.47      18.35       0.88
C      22.01      11.13      17.30
C      11.13      22.01      17.30
C      18.35       7.47       0.88
C      28.21      19.64      17.70
C      17.32      11.19      17.30
C      12.16      18.29       0.88
C      18.29      12.16       0.88
C      11.19      17.32      17.30
C       1.27       9.85       0.48
C      19.61      26.77      17.31
C       9.86       2.71       0.86
C       2.71       9.86       0.86
C      26.77      19.62      17.31
C       9.85       1.27       0.48
C       9.83      19.67       1.41
C      19.65       9.81      16.76
C       9.81      19.65      16.76
C      19.64       9.83       5.48
C      19.67       9.83       1.41
C       9.83      19.65       2.83
C      19.65       9.83      15.34
C       9.82      19.65      15.34
C      19.65       9.83       2.83
C       9.82      19.65       5.48
C       6.25      16.08       9.09
C      23.23      13.40       9.08
C      13.39      23.23       9.08
C      16.08       6.25       9.09
C      19.65       9.84      12.69
C       5.38      15.22       9.09
C      24.09      14.26       9.09
C      14.26      24.10       9.09
C      15.22       5.39       9.09
C      13.40      16.08       9.09
C      16.08      13.40       9.08
C      14.26      15.22       9.09
C      15.22      14.26       9.09
C      12.38      22.21       9.08
C      17.10       7.27       9.09
C       7.27      17.10       9.09
C      22.21      12.38       9.08
C      12.38      17.10       9.09
C      17.10      12.38       9.09
C       7.27      22.21       9.09
C      22.21       7.27       9.09
C       6.25      23.23       9.08
C      23.23       6.25       9.09
C       5.38      24.09       9.09
C      24.10       5.39       9.09
C      18.56      10.47      17.69
C      10.92      19.02       0.48
C      19.02      10.92       0.48
C      10.46      18.56      17.69
C       8.72      19.04       0.48
C      20.75      10.44      17.69
C      10.44      20.75      17.69
C      19.04       8.73       0.48
O       9.82      19.66       9.09
O      20.79       9.83       6.04
O       9.82      20.79       6.05
O      19.65       8.69      12.13
O      12.57      21.23       9.87
O      16.91       8.25       8.30
O       8.25      16.91       8.30
O      21.23      12.57       9.87
O      19.66       9.83       9.09
O      12.57      18.09       9.87
O      16.91      11.40       8.30
O      11.39      16.91       8.30
O      18.08      12.57       9.87
O       7.08      21.23       9.88
O      22.40       8.25       8.29
O       8.25      22.40       8.29
O      21.23       7.08       9.88
O      11.39      22.40       8.29
O      18.08       7.08       9.88
O       7.08      18.08       9.88
O      22.40      11.40       8.29
O      10.98      19.66      12.13
O      18.50       9.83       6.05
O       9.82      18.50       6.05
O      19.65      10.98      12.13
O       8.69      19.65      12.13
O       7.11      18.18       2.03
O      22.37      11.30      16.15
O      11.30      22.37      16.15
O      18.18       7.11       2.03
O      16.97      11.36      16.14
O      12.51      18.12       2.03
O      18.12      12.51       2.03
O      11.36      16.97      16.14
O      19.61      26.37      16.16
O       9.87       3.11       2.01
O       3.11       9.87       2.01
O      26.37      19.62      16.16
