218

Zn       9.72      18.77      18.61
Zn      17.73      10.95       0.99
Zn      17.79       7.70       0.96
Zn      24.19      18.55      18.52
Zn       7.25      18.79       0.97
Zn      16.98      10.92      18.52
Zn      16.88      26.36      18.54
Zn      10.54      18.56       0.99
H      10.78      14.17      18.00
H      10.29      13.55      19.58
H      11.84      11.83      19.30
H      12.47      12.58      17.83
H       4.58       3.34       1.81
H       5.97       4.42       1.95
H       3.22       5.25       1.99
H       4.62       6.31       1.86
H      12.73      15.78      17.85
H      13.40      16.51      19.31
H      14.97      14.78      19.53
H      14.45      14.19      17.96
H      23.26      23.30      18.14
H      15.51      14.48       0.09
H      22.03      25.52      19.46
H      21.51      24.82      17.92
H      13.13      15.20       1.87
H      11.70      14.15       1.88
H      14.40      13.22       2.01
H      12.99      12.22       1.65
H      21.30      21.74      17.67
H      20.55      20.83      18.98
H      18.96      22.51      19.34
H      19.51      23.24      17.84
H      10.40      23.71      18.52
H      11.48      22.61      17.65
H      13.17      24.22      17.60
H      12.02      25.37      18.30
H      14.80      22.97      19.10
H       6.54      13.74       1.13
H      13.19      21.28      18.93
H       5.11      11.91       0.97
H       2.30      14.37       1.36
H       3.53      13.47       2.22
H       4.88      15.38       2.15
H       3.73      16.20       1.10
H      23.48      13.53      18.53
H      22.43      14.57      17.56
H      20.75      12.95      17.57
H      21.87      11.86      18.39
H      19.08      14.32      18.91
H      11.16       5.06       0.95
H      20.69      16.00      18.69
H      12.62       6.87       0.72
H      15.39       4.42       1.36
H      14.14       5.39       2.13
H      12.78       3.48       2.14
H      13.96       2.59       1.19
H      12.09      17.77       5.28
H       5.56      19.47       4.93
H       6.02      19.95       7.98
H      11.21      17.26       8.40
H      11.03      19.94      11.53
H       5.87      17.27      11.13
H      22.73      17.78      14.15
H      11.50      19.46      14.63
H      18.03      24.70      14.44
H      16.21      12.54      14.38
H      15.94      11.84      11.19
H      18.67       6.73      11.38
H      16.08       6.69       8.12
H      18.78      11.90       8.19
H      18.41      12.55       5.08
H      16.66       6.05       5.01
C       2.52      12.01       0.05
C      17.64       9.29       3.43
C      10.70      16.22      19.70
C      23.30      15.99      19.63
C       8.13      18.65      16.10
C      23.20      21.10      19.62
C      14.48      12.03      19.61
C      17.02       9.29      16.07
C      14.32      25.53      19.68
C      19.39      25.26      19.65
C       8.89      18.67       3.44
C      19.52      11.80      19.67
C       8.83      18.64       4.95
C       9.98      18.93       5.70
C       9.93      18.85       7.10
C       8.70      18.60       7.75
C       7.54      18.36       6.98
C       7.62      18.32       5.58
C       8.61      18.60       9.17
C       8.51      18.60      10.39
C       8.41      18.60      11.80
C       9.55      18.35      12.60
C       9.44      18.30      13.99
C       8.21      18.62      14.60
C       7.08      18.92      13.82
C       7.16      18.85      12.43
C      17.11       9.29      14.58
C      16.86       8.11      13.86
C      17.00       8.10      12.47
C      17.27       9.30      11.77
C      17.46      10.50      12.50
C      17.44      10.48      13.90
C      17.34       9.30      10.36
C      17.39       9.30       9.14
C      17.44       9.29       7.73
C      17.72       8.09       7.03
C      17.83       8.10       5.64
C      17.56       9.29       4.93
C      17.22      10.47       5.61
C      17.22      10.49       7.01
C      11.15      13.89      18.99
C      12.22      12.77      18.88
C      13.50      13.20      19.64
C       5.06       4.22       1.37
C       4.12       5.45       1.40
C      11.77      15.14      19.68
C      13.02      15.56      18.89
C      14.09      14.45      18.96
C      22.78      23.49      19.11
C      21.70      24.59      18.97
C      20.38      24.11      19.62
C      12.64      14.36       1.35
C      13.55      13.11       1.33
C      22.13      22.17      19.62
C      20.94      21.82      18.70
C      19.85      22.91      18.83
C      11.41      23.28      18.52
C      12.49      24.38      18.45
C       5.25      15.10       0.04
C       6.00      13.75       0.17
C       4.98      12.58       0.10
C       3.54      13.14       0.09
C       3.35      14.05       1.31
C       4.30      15.27       1.23
C      22.47      13.96      18.47
C      21.40      12.85      18.45
C      12.48       3.62       0.00
C      11.74       4.98       0.01
C      20.82      15.45      19.63
C      22.25      14.88      19.70
C      14.35       4.74       1.26
C      13.39       3.53       1.23
C      11.22      19.48       5.03
C       6.45      17.77       4.78
C       6.23      18.05       7.68
C      11.16      19.15       7.93
C      10.87      18.05      11.93
C       5.95      19.16      11.58
C      23.61      19.47      14.48
C      10.59      17.77      14.82
C      16.29       6.89      14.56
C      17.93      11.69      14.67
C      17.79      11.78      11.76
C      16.76       6.83      11.69
C      17.99       6.83       7.81
C      16.90      11.76       7.76
C      16.70      11.68       4.85
C      18.40       6.89       4.93
O       8.04      18.65      19.61
O      10.82      20.34      18.99
O      17.92      10.41       2.90
O       1.68       6.74       0.79
O       1.48      12.14       0.77
O      10.83      17.19      18.89
O      17.41       8.19       2.85
O      16.32       6.50       0.55
O       7.00      18.35      16.62
O      23.04      17.00      18.89
O       9.20      18.97      16.70
O      16.09      11.96       0.73
O      23.09      20.14      18.78
O      16.95       9.32      19.64
O       6.15       1.71       0.61
O      16.71      10.40      16.61
O      15.19      25.43      18.74
O      15.51      12.15      18.86
O       6.18      17.17       0.80
O      17.26       8.18      16.65
O      18.31      25.11      18.97
O       9.99      18.36       2.91
O      11.64      16.99       0.61
O       7.80      19.00       2.87
O      18.64      11.88      18.75
O      11.58       1.55       0.80
O      12.32      18.68       5.01
O      11.25      20.61       4.58
O       5.35      18.55       4.67
O       6.48      16.64       4.34
O       5.52      19.12       8.11
O       5.83      16.92       7.84
O      11.74      18.07       8.53
O      11.62      20.26       8.04
O      11.55      19.12      11.44
O      11.31      16.92      11.84
O       5.35      18.09      10.99
O       5.51      20.28      11.45
O      22.50      18.68      14.45
O      23.58      20.59      14.94
O      11.69      18.55      14.93
O      10.56      16.65      15.28
O      17.11      24.46      14.66
O      15.14      25.51      14.93
O      17.11      12.78      14.69
O      19.03      11.72      15.16
O      16.75      12.38      11.14
O      18.91      12.25      11.74
O      17.87       6.20      11.21
O      15.65       6.38      11.50
O      16.90       6.18       8.29
O      19.11       6.40       7.99
O      17.95      12.41       8.31
O      15.77      12.18       7.87
O      17.50      12.77       4.81
O      15.59      11.69       4.38
O      17.59       5.81       4.81
O      19.55       6.86       4.56
