212

Zn       7.57       9.05      15.57
Zn      27.10      10.84      18.25
Zn       9.07      11.89      15.71
Zn      25.56      11.79      15.60
Zn      18.42       7.29       8.86
Zn      16.90       4.43       8.67
Zn      18.63       5.50       6.18
Zn      20.10       4.55       8.85
Zn      16.22      16.38      22.45
Zn      17.76      15.47      25.13
Zn      16.02      18.17      25.11
Zn      14.56      15.33      24.99
Zn      17.72       5.06      32.03
Zn      14.51       4.91      31.83
Zn      24.93      19.94      31.87
Zn      18.41      17.69       1.96
H      20.86       9.43      11.40
H       5.12       6.91      13.02
H      13.79      14.85      19.51
H       9.83      12.38      21.19
H      14.43       2.88       1.61
H      13.92       2.57       6.53
H      11.54       3.64      29.30
H      20.73      16.73      27.68
C       7.49       7.89      18.29
C       9.89      12.41      18.52
C      10.18       9.57      14.28
C      27.15      13.90      14.28
C      24.77       9.39      14.04
C      24.49      12.23      18.30
C      15.80       6.76      10.13
C      16.12       3.93       5.88
C      18.52       8.45       6.14
C      21.22       4.11       6.16
C      20.90       6.95      10.39
C      18.51       2.43      10.13
C      18.83      15.01      22.41
C      18.53      17.86      26.67
C      16.13      19.33      22.41
C      13.43      17.66      26.42
C      13.74      14.82      22.19
C      16.18      13.33      26.43
C      16.11       7.05      30.56
C      22.42      20.25      30.31
C      27.52      20.47      30.58
C      18.53      14.74       2.01
C      12.23       1.51       2.26
C       7.13       1.33       1.97
C      23.76       8.79      13.10
C      21.91       7.55      11.32
C      22.63       9.47      12.62
C      23.05       6.87      11.80
C      21.73       8.87      11.75
C      23.95       7.47      12.67
C      10.89      13.04      19.43
C      12.73      14.19      21.27
C      12.03      13.74      18.99
C      11.60      13.48      21.71
C      12.92      14.31      19.89
C      10.70      12.92      20.82
C      12.44       9.65      13.05
C      13.54       6.68      11.37
C      11.28       9.02      13.47
C      14.70       7.31      10.94
C      12.71       7.53      12.14
C      13.27       8.80      12.28
C      23.23      12.77      20.49
C      20.08      14.45      20.23
C      23.38      12.76      19.11
C      19.93      14.47      21.61
C      21.28      13.84      19.81
C      22.03      13.39      20.90
C       7.42       6.52      20.47
C       7.53       2.95      20.22
C       7.48       6.66      19.09
C       7.46       2.82      21.60
C       7.51       4.30      19.80
C       7.43       5.18      20.90
C      26.08      15.82      12.94
C      28.26      18.26      11.49
C      27.15      15.13      13.48
C      27.19      18.95      10.95
C      27.87      17.11      12.21
C      26.47      16.96      12.21
C      15.14       3.32       4.93
C      13.21       2.12       3.21
C      15.25       3.39       3.53
C      13.10       2.05       4.61
C      14.32       2.81       2.69
C      14.04       2.64       5.45
C      18.58       9.81       3.95
C      18.46      13.38       4.20
C      18.52       9.67       5.33
C      18.52      13.51       2.82
C      18.48      12.03       4.62
C      18.56      11.16       3.53
C       3.79       2.93       5.76
C       4.87       2.51       2.37
C       2.62       3.56       5.35
C       6.03       1.88       2.78
C       4.05       2.90       3.45
C       4.61       2.54       4.68
C      19.51      18.50      27.60
C      21.44      19.61      29.38
C      19.40      19.82      28.08
C      21.55      18.29      28.90
C      20.34      20.36      28.94
C      20.61      17.75      28.03
C      17.24      11.41      27.77
C      15.04       8.97      29.21
C      16.17      12.11      27.23
C      16.11       8.27      29.75
C      15.44      10.12      28.49
C      16.84      10.26      28.50
C      30.86      17.58      27.66
C      29.78      20.55      29.33
C      32.02      18.20      27.23
C      28.61      19.93      29.76
C      30.60      19.70      28.56
C      30.03      18.42      28.42
S      11.19       7.37      12.93
S      14.79       8.96      11.48
S      22.04      13.52      18.29
S      21.28      13.71      22.42
S       7.56       5.12      18.28
S       7.38       4.36      22.41
S      28.68      15.87      13.09
S      25.67      18.20      11.33
S      18.43      11.22       6.14
S      18.61      11.97       2.01
S       2.53       3.70       3.61
S       6.13       1.74       4.52
S      14.64      11.36      27.60
S      17.64       9.02      29.38
S      32.12      19.86      27.76
S      28.51      18.27      29.22
O       7.48      10.88      16.28
O       7.54       7.71      17.02
O       8.92      11.79      19.08
O      10.28      10.78      14.64
O       7.44       9.00      18.91
O       9.22       8.75      14.54
O      10.08      12.53      17.27
O       8.61      13.47      14.64
O      24.56      10.58      14.42
O      26.02      13.39      14.56
O      25.75       8.64      14.37
O      25.46      11.69      18.92
O      24.35      12.35      17.03
O      18.50       5.45       8.15
O      16.76       7.58       9.89
O      15.88       3.78       7.12
O      18.60       7.34       5.52
O      15.70       5.55       9.75
O      18.45       8.62       7.41
O      17.12       4.55       5.38
O      20.26       4.66       5.51
O      21.10       5.75      10.03
O      21.32       3.99       7.42
O      19.93       7.70      10.05
O      17.36       2.85       9.75
O      19.64       2.95       9.88
O      16.15      16.34      24.42
O      17.86      15.54      21.78
O      18.79      16.66      26.31
O      16.06      19.51      23.67
O      18.97      14.90      23.68
O      16.19      18.22      21.78
O      17.53      18.56      26.30
O      14.38      18.47      26.15
O      13.55      14.69      23.44
O      13.34      16.43      26.06
O      14.70      15.44      21.62
O      17.31      13.86      26.17
O      15.02      13.75      26.06
O      16.12       4.04      32.55
O      17.26       6.64      30.95
O      22.18      21.46      30.64
O      26.57      19.66      30.83
O      14.97       6.51      30.80
O      18.93       3.94      30.95
O      23.41      19.55      30.69
O      18.62      14.56       0.74
O      11.24       0.89       2.76
O      18.44      15.85       2.63
O      12.48       1.66       1.02
O       7.02       1.43       0.70
O       8.09       0.79       2.63
F      22.37      10.75      12.98
F      23.31       5.59      11.44
F      12.29      13.90      17.67
F      11.34      13.32      23.03
F      16.29       4.03       2.93
F      12.06       1.41       5.21
F      18.37      20.62      27.71
F      22.58      17.50      29.26
F      12.77      10.92      13.32
F      13.21       5.41      11.10
F      24.12      12.26      21.36
F      19.20      14.97      19.36
F       7.34       7.54      21.34
F      16.28      19.68      19.35
F      24.79      15.47      13.07
F      29.55      18.61      11.35
F      18.65       8.79       3.08
F      18.38      14.40       5.07
F       4.12       2.69       7.04
F       4.54       2.75       1.09
F      18.53      11.76      27.64
F      13.76       8.62      29.34
F      30.53      16.31      27.39
F      21.42       4.08      29.60
