158

Zr       0.21       3.56      17.47
Zr       0.38      18.22      15.25
Zr       0.12       0.33       2.63
Zr       0.08      14.90       0.42
Zr      13.21       0.08       0.06
Zr       2.74      17.35       0.20
H       2.27       2.88      15.67
H      13.83      16.38      15.85
H       1.97      15.48       2.39
H      13.81       2.32       1.90
H       1.16      16.27      13.68
H       0.23      15.26      15.31
H      14.83      13.22       2.24
H       0.89      16.66       5.04
H      14.89       2.29       4.30
H      14.98       5.00       0.89
H      15.01       5.03      15.40
H       0.34       3.44      14.45
H      14.90      16.36       4.86
H       0.97       4.79       1.21
H       1.33       2.69      13.41
H       0.92      14.10      16.16
H      10.38       9.79      16.96
H       5.52       9.72      17.21
H       5.55       0.80       8.97
H      10.54      17.93       8.87
C      12.57       4.32      17.18
C       3.72      18.18      14.75
C      12.65       1.03      14.51
C       3.41       3.16       0.09
C       3.45       0.37       3.26
C      12.37      14.39       0.38
C       3.28      14.16       0.20
C      12.37       0.31       3.13
C       8.66       8.53      16.63
C       7.25       8.53      16.87
C       6.60       9.75      17.08
C       7.24      10.98      17.18
C       8.65      10.98      17.19
C       9.30       9.77      16.92
C       7.32       0.74      10.18
C       8.74       0.65      10.14
C       9.36       0.57       8.89
C       8.68       0.57       7.67
C       7.26       0.68       7.69
C       6.64       0.75       8.95
C       4.51       1.65       5.20
C       4.56       0.60       4.26
C       5.71      17.09       4.37
C       6.46      17.04       5.56
C       6.39       0.70       6.47
C       5.49       1.76       6.20
C      10.34      16.72       6.12
C       9.53       0.48       6.44
C       9.75       1.61       5.61
C      10.65       1.56       4.53
C      11.30       0.37       4.20
C      11.15      16.64       4.98
C       5.64       1.92      11.70
C       6.50       0.82      11.43
C       6.57      17.19      12.39
C       5.79      17.25      13.56
C       4.74       0.84      13.72
C       4.77       1.90      12.81
C       9.86       1.91      12.03
C       9.67       0.70      11.32
C      10.62      17.03      11.65
C      11.58      17.14      12.67
C      11.62       0.92      13.40
C      10.82       2.02      13.05
C       4.98      12.55       1.15
C       4.28      13.04       0.04
C       4.48      13.50      16.41
C       5.47      12.52      16.24
C       6.31      12.14      17.32
C       6.02      11.63       0.97
C      10.36      14.40      16.86
C      11.28      13.32       0.31
C      11.27      12.21       1.17
C      10.37      11.14       0.97
C       9.51      12.17      17.47
C       9.57      13.26      16.59
C       4.31       6.20      16.42
C       4.43       5.33      17.52
C       5.49       4.45       0.80
C       6.40       5.51       0.60
C       6.34       7.38      17.07
C       5.28       7.17      16.17
C      10.16       5.06      16.81
C      11.54       5.34      16.78
C      11.89       6.60      16.19
C      10.92       7.58      15.95
C       9.54       7.38      16.30
C       9.21       6.00      16.35
Br       5.57       3.37       7.19
Br       3.14       2.94       5.04
Br       7.30      15.40       5.99
Br       6.17      15.94       2.94
Br      11.93      15.01       4.42
Br      10.35      15.22       7.29
Br      11.09       3.13       3.55
Br       8.90       3.24       6.04
Br       3.74       3.45      13.24
Br       5.59       3.42      10.56
Br       6.10      16.02      14.96
Br       7.52      15.59      12.03
Br      11.15       3.67      13.91
Br       8.88       3.44      11.53
Br      12.74      15.70      13.09
Br      10.58      15.41      10.67
Br       6.98      11.00       2.47
Br       4.33      12.99       2.87
Br       5.62      11.65      14.57
Br       3.30      13.93      14.98
Br       8.67      13.14      14.94
Br      10.17      15.91      15.74
Br      10.36       9.69       2.20
Br      12.46      12.13       2.65
Br       5.28       8.09      14.52
Br       2.82       6.03      15.25
Br       7.75       5.85       1.89
Br       5.67       3.31       2.29
Br       7.69       5.30      15.47
Br       9.42       3.46      17.51
Br      11.36       9.05      14.81
Br      13.66       7.01      15.59
O      13.77       4.74      17.35
O      12.22       3.12      17.33
O       2.55      18.03      14.27
O       4.03      18.28      15.98
O      13.86       1.07      14.15
O      12.18       1.03      15.69
O       2.20       3.55       0.23
O       3.82       1.97       0.02
O       0.23       4.46      15.56
O       0.08       4.39       1.28
O       0.46       2.59      13.83
O       0.37      16.40      14.23
O      14.74       2.02      16.60
O       1.67       2.36      16.24
O       2.28       0.26       3.74
O       3.78       0.24       2.04
O      13.55      13.93       0.40
O      12.04      15.62       0.34
O       2.07      13.81       0.23
O       3.76      15.33       0.30
O      13.55       0.23       3.59
O      12.00       0.36       1.92
O       0.22      16.26       4.44
O       0.11       1.84       3.94
O       0.09      13.70       2.02
O       0.11      14.64      16.13
O       1.52      16.06       1.76
O      14.64      16.54       1.27
O       1.24       1.15       1.11
O      14.39      16.96      16.40
O      14.36       1.70       1.41
O       1.31      17.35      16.85
