222

Cu       5.82       2.12      10.35
Cu       8.81      16.17      13.47
Cu       3.09      12.55       0.19
Cu      11.54       5.75      23.63
P       6.95       2.63       8.53
P       7.68      15.67      15.29
P       6.51      15.30      23.00
P       8.12       2.99       0.82
H       6.69      13.89       8.39
H       7.94       4.40      15.44
H      12.06      13.10       9.90
H       2.57       5.19      13.92
H      12.63      14.50      11.87
H       2.00       3.80      11.95
H       5.55      15.60      11.98
H       9.08       2.70      11.84
H       3.10      12.09       3.06
H      11.53       6.20      20.76
H       6.89      13.47       4.64
H       7.75       4.83      19.18
H       5.26       0.63       2.32
H       9.37      17.66      21.50
H       3.60       0.27       0.49
H      11.03      18.02      23.33
H       3.13       8.52       5.01
H      11.50       9.77      18.81
H      10.81       9.95       8.73
H       3.83       8.35      15.10
H       9.41       7.88       8.78
H       5.22      10.42      15.04
H       9.61       6.24       6.91
H       5.02      12.06      16.91
H       5.40      13.89       6.42
H       9.23       4.41      17.40
H       3.45      10.53       4.59
H      11.19       7.76      19.23
H       3.28      11.06       8.87
H      11.35       7.24      14.95
H       7.89       4.86      10.02
H       6.74      13.44      13.80
H      10.14       5.88      10.37
H       4.49      12.42      13.45
H       2.81       4.83       9.38
H      11.82      13.47      14.44
H       2.57       2.76       7.98
H      12.06      15.54      15.84
H       9.68       1.77       7.61
H       4.95      16.53      16.22
H       8.16       4.42       6.45
H       6.47      13.88      17.37
H       7.17       6.16       5.00
H       7.46      12.14      18.83
H       4.74       6.70       5.18
H       9.89      11.59      18.65
H       3.33       5.53       6.85
H      11.30      12.76      16.97
H       4.35       3.79       8.33
H      10.28      14.51      15.49
H       7.27       2.38       5.54
H       7.37      15.92      18.28
H       9.69      14.01       4.07
H       4.94       4.28      19.75
H       9.68      11.73       5.03
H       4.95       6.57      18.79
H       9.43      11.42       7.49
H       5.20       6.88      16.33
H       9.22      13.40       8.99
H       5.41       4.90      14.83
H       5.88      10.81       0.63
H       8.76       7.49      23.19
H       8.27      10.58       0.01
H       6.36       7.71      23.81
H      12.01      14.78      21.48
H       2.63       3.51       2.34
H      10.24      14.49      19.74
H       4.39       3.81       4.08
H       7.85      14.69      20.36
H       6.79       3.61       3.46
H       5.20      17.06      21.13
H       9.43       1.23       2.69
H      13.33      16.70      19.00
H       1.30       1.60       4.82
H      12.92      14.37      18.18
H       1.71       3.93       5.64
H       4.39      12.44      19.48
H      10.24       5.86       4.34
H       5.67      12.80      21.60
H       8.96       5.49       2.22
H       7.94      12.68      23.20
H       6.69       5.62       0.62
H       4.47       6.00       0.83
H      10.16      12.29      23.00
H       2.63       5.99       2.49
H      12.00      12.30      21.34
H      10.46       7.96       2.67
H       4.17      10.33      21.15
H      10.82       9.95       1.22
H       3.81       8.35      22.60
C       5.90      14.01       9.13
C       8.73       4.28      14.69
C       4.66      13.37       8.98
C       9.97       4.93      14.84
C       3.70      13.55       9.98
C      10.93       4.75      13.84
C       4.01      14.34      11.08
C      10.62       3.95      12.74
C       5.26      14.95      11.14
C       9.37       3.34      12.68
C       4.09      12.53       2.95
C      10.54       5.77      20.88
C       4.94      12.69       4.04
C       9.69       5.60      19.78
C       6.18      13.32       3.82
C       8.45       4.97      20.00
C       6.50      13.75       2.54
C       8.13       4.55      21.28
C       5.59      13.54       1.51
C       9.04       4.75      22.31
C       2.45       8.43       5.86
C      12.18       9.86      17.96
C       2.42       9.43       6.85
C      12.21       8.87      16.97
C      10.89       9.21       7.93
C       3.74       9.08      15.89
C      10.11       8.06       7.96
C       4.53      10.23      15.86
C      10.21       7.15       6.91
C       4.42      11.15      16.91
C       4.37      12.56       7.78
C      10.26       5.74      16.04
C       4.83      12.96       6.52
C       9.80       5.33      17.30
C       4.51      12.23       5.37
C      10.12       6.07      18.45
C       3.71      11.08       5.49
C      10.92       7.21      18.33
C       3.26      10.64       6.74
C      11.38       7.65      17.08
C       3.60      11.39       7.88
C      11.03       6.90      15.94
C       8.64       3.25       8.78
C       5.99      15.04      15.04
C       8.78       4.42       9.56
C       5.85      13.88      14.26
C      10.04       4.98       9.76
C       4.60      13.31      14.07
C       1.82       4.39       9.19
C      12.81      13.90      14.63
C       1.69       3.24       8.42
C      12.94      15.06      15.40
C       9.78       2.66       8.21
C       4.85      15.63      15.61
C       6.30       3.96       7.46
C       8.33      14.33      16.36
C       7.10       4.65       6.54
C       7.53      13.64      17.28
C       6.54       5.64       5.72
C       8.09      12.66      18.10
C       5.18       5.95       5.82
C       9.45      12.35      18.00
C       4.38       5.28       6.76
C      10.25      13.02      17.06
C       4.94       4.30       7.58
C       9.69      14.00      16.25
C       9.33      14.83       7.37
C       5.30       3.47      16.45
C       7.27       1.38       5.98
C       7.36      16.91      17.84
C       9.58      13.88       5.15
C       5.05       4.42      18.67
C       9.58      12.59       5.69
C       5.05       5.70      18.13
C       9.45      12.42       7.07
C       5.18       5.88      16.75
C       9.33      13.53       7.91
C       5.30       4.77      15.92
C       8.24      15.11      22.45
C       6.39       3.19       1.38
C       9.25      15.27      23.42
C       5.38       3.03       0.40
C      10.59      15.13      23.07
C       4.04       3.16       0.75
C      10.95      14.86      21.75
C       3.68       3.43       2.07
C       9.96      14.71      20.78
C       4.67       3.59       3.04
C       8.61      14.83      21.12
C       6.02       3.47       2.70
C       5.54      14.96      21.49
C       9.09       3.34       2.33
C       5.05      16.05      20.75
C       9.59       2.25       3.07
C      13.70      15.84      19.56
C       0.93       2.46       4.26
C      13.48      14.54      19.10
C       1.15       3.76       4.72
C       4.60      13.45      19.84
C      10.03       4.85       3.98
C       5.31      13.66      21.02
C       9.32       4.64       2.80
C       3.18       9.11       0.20
C      11.45       9.19      23.62
C       4.03       7.99       0.10
C      10.61      10.31      23.72
C       3.82       6.87       0.92
C      10.81      11.42      22.90
C       2.78       6.86       1.85
C      11.85      11.43      21.97
C       1.93       7.97       1.95
C      12.70      10.33      21.88
C       2.13       9.08       1.13
C      12.50       9.21      22.69
I       9.34      14.01      11.96
I       5.30       4.29      11.86
I      10.07      12.65       1.45
I       4.56       5.65      22.37
N       6.20      14.80      10.18
N       8.44       3.50      13.64
N       4.40      12.95       1.70
N      10.24       5.35      22.12
N      11.04       7.33       5.88
N       3.59      10.97      17.95
