152

Zn       1.96       5.95       8.63
Zn       1.56       9.00       8.46
H      -2.68       8.97       8.43
H       1.08      12.64      13.51
H       1.05      12.31      11.76
H      -0.42      12.85      12.59
H      -0.49      10.37      12.12
H      -0.58      10.73      13.85
H       1.85      10.20      14.09
H       1.95       9.86      12.34
H       4.47      12.48       0.99
H       2.86      13.03       1.50
H       4.30      13.53       2.41
H       6.23       5.89       8.50
H       3.09      11.71       3.64
H       4.69      11.16       3.14
H       3.65      10.15       1.05
H       2.08      10.63       1.61
H      -1.73       2.34      15.77
H      -2.57       2.28      14.21
H      -1.10       1.31      14.46
H      -0.51       3.34      13.11
H       0.25       3.45      14.71
H      -1.73       4.85      15.49
H       3.39       2.70       5.65
H      -2.35       4.82      13.83
H      -1.68       1.21      11.95
H       6.75      -0.30      11.08
H      -0.79       0.81      10.47
H       5.90       1.02       9.12
H       6.26       2.53       9.95
H       4.57       2.01      11.70
H       4.30       0.42      10.99
H      -2.84      15.75       6.71
H       5.36      14.19       6.07
H       3.08       2.16       3.98
H       4.73      14.81       7.61
H      -2.37      13.01       8.05
H      -1.79      14.55       8.67
H      -0.39      14.85       6.62
H      -0.97      13.31       5.98
H       4.13       4.79      13.64
H       3.08       6.07      12.99
H       2.44       4.93      14.19
H       1.63       4.33      11.89
H       2.68       3.05      12.52
H       4.74       2.34       4.57
H       4.60       4.05      11.19
H       3.53       5.31      10.61
H      -0.54       9.03       4.66
H      -1.61      10.40       4.28
H      -0.16      10.11       3.29
H       0.28      12.00       4.88
H       1.30      10.61       5.28
H      -0.34       9.89       7.03
H      -1.33      11.30       6.69
H       6.97       4.70       6.38
H       4.21       4.29       3.13
H       6.96       3.07       5.67
H       5.88       3.45       7.03
H      -0.90       2.13       7.82
H      -0.91       3.75       8.53
H       0.70       4.55       6.82
H       0.72       2.94       6.07
H      -3.09      11.32      11.61
H      -3.20       9.76      10.76
H      -2.01      10.96      10.24
H       4.82      10.98       8.66
H       4.38       4.83       4.81
H       4.90      12.51       9.55
H       3.18      11.65      11.15
H       3.09      10.13      10.25
H       1.90       4.79       5.08
H       1.72       4.28       3.39
C       1.06       7.61      11.06
C       2.25      11.83       9.26
C       2.03       1.68       7.95
C       2.10      13.22       9.31
C       2.97       1.15       8.84
C       1.15      13.90       8.55
C       3.28      -0.22       8.77
C       1.01      15.30       8.67
C       4.27       7.77       8.67
C      -0.75       7.16       8.33
C       5.73       7.95       8.52
C       2.27       7.30       6.00
C      -2.20       6.92       8.45
C       2.40       6.58       2.29
C       0.48       8.08      14.77
C       2.42       6.29       3.65
C       0.78       8.45      13.47
C       2.59       7.39       4.52
C       0.48       7.51      12.45
C       2.90       8.65       3.97
C      -0.28       6.38      12.81
C       2.87       8.95       2.61
C       2.44       8.07       0.36
C      -0.61       6.02      14.11
C       2.56       7.86       1.74
C      -0.13       6.87      15.14
C       2.34       4.85       4.09
C       3.75       4.23       4.14
C       3.74       2.78       4.61
C       1.29       9.84      13.22
C       0.08      10.77      12.97
C       0.47      12.22      12.69
C       3.07      10.31       1.98
C      -0.22       6.54      16.50
C       3.70      11.46       2.76
C       3.84      12.69       1.87
C      -1.43       4.80      14.43
C      -0.72       3.45      14.19
C      -1.58       2.28      14.68
C       4.56       1.46      10.75
C       5.96       1.48      10.11
C      -1.77       0.76      10.95
C      -0.74      13.85       6.91
C      -2.03      14.01       7.74
C       3.52       2.01       9.81
C      -3.15      14.73       6.99
C       3.55       4.26      10.93
C       2.66       4.10      12.18
C       3.10       5.02      13.31
C      -0.30      10.93       6.69
C       0.26      10.96       5.25
C      -0.56      10.08       4.32
C       0.60       3.48       7.02
C      -0.80       3.20       7.59
C       6.88       3.63       6.61
C       0.34      13.15       7.68
C       3.28      11.20      10.15
C       4.72      11.44       9.66
C      -3.03      10.84      10.62
C       3.10       3.36       9.82
C       0.52      11.75       7.64
C       1.67       3.02       7.97
N       2.23       3.85       8.89
N       1.45      11.12       8.42
O       1.33       6.50      10.52
O       1.65       8.30       6.47
O       1.30       8.76      10.56
O       2.58       6.24       6.63
O       3.84       6.63       9.02
O      -0.35       8.36       8.47
O       3.56       8.81       8.43
O      -0.01       6.14       8.12
F       2.20       5.55       1.41
F       0.82       8.94      15.78
F       3.28       9.64       4.83
F      -0.77       5.56      11.82
F       1.46       0.85       7.04
F       2.89      13.93      10.16
