79

Zn       2.88       5.10       8.01
Zn       5.85       5.24       7.92
H       3.19       2.85      14.44
H       1.30       9.42      11.79
H       2.62       8.17      10.15
H       6.12       8.38       6.90
H       8.54       6.80      10.33
H       7.57       3.32       3.14
H       0.26       1.90       3.42
H       1.87       3.08       6.38
H       1.58       5.72      10.24
H       6.57       5.88       1.51
H       6.35       3.09       1.14
H       4.18       6.99      15.17
H       5.63       3.52      15.08
H       6.07       5.23      15.18
H       2.47       7.66       0.94
H       4.64       7.51       2.50
H       2.52       6.49      14.77
H       6.30       1.00       6.88
H       4.35       3.12       0.80
H       6.99       4.28       5.42
H       2.34       3.96       1.86
H       1.93       4.08      14.64
H       3.06       2.26      10.17
H       1.68       1.05      11.81
C       4.70       2.65       8.18
C       2.27       0.49      11.08
C       1.90       9.96      11.07
C       4.07       5.13       5.41
C       2.65       9.25      10.14
C       3.47       9.91       9.19
C       3.83       0.47       9.21
C       4.71       1.16       8.31
C       5.59       0.47       7.52
C       5.26       9.93       7.51
C       4.33       9.21       8.28
C       2.91       3.76      14.99
C       8.03       4.04       5.62
C       8.76       3.27       4.74
C       0.22       2.89       5.03
C       4.28       7.74       8.10
C       0.84       3.37       6.16
C       0.15       4.23       7.03
C       8.65       4.52       6.80
C       8.60       5.78       8.75
C       0.11       5.54       8.96
C       4.15       5.21      10.64
C       3.96       4.87      14.72
C       3.80       4.05       0.56
C       6.06       5.04       1.02
C       5.28       4.50      15.44
C       4.19       5.16      12.08
C       4.53       5.19       1.34
C       3.43       6.20      15.31
C       4.10       6.62       0.86
C       4.14       5.02      13.29
C       4.30       5.09       2.76
C       4.11       5.11       3.96
C       3.04       1.17      10.16
N       7.95       5.28       7.72
N       0.81       4.82       8.10
O       3.56       3.19       7.98
O       6.18       9.36       6.70
O       7.92       6.54       9.62
O       8.29       2.78       3.55
O       0.89       2.09       4.15
O       0.63       6.07      10.06
O       6.64       3.88       1.63
O       2.72       6.74       1.14
O       4.83       7.63       1.55
O       5.81       3.25       8.26
O       2.97       5.38       5.98
O       5.19       4.89       5.97
O       3.22       7.10       8.32
O       5.38       7.18       7.67
O       2.98       5.03      10.12
O       5.22       5.39      10.00
O       2.43       3.87       0.89
