84

Zn       4.89       5.94       8.99
Zn       4.94       8.81       9.00
H       3.37      10.92       7.79
H       3.20      13.38       7.69
H       6.61      13.54      10.36
H       3.26       1.30       7.24
H       6.68       1.32       9.91
H       6.42       3.78      10.06
H       6.59      -0.78       9.75
H       3.31      15.57       7.75
H       4.78       9.56       4.86
H       4.84       9.75       2.40
H       5.39       5.47       2.15
H       4.52       9.16      15.81
H       5.00       4.87      15.56
H       5.07       5.07      13.10
H       5.25       6.64       0.16
H       4.93       9.70       0.29
H       1.70       5.57       9.69
H       8.26       5.30       9.38
H       2.59       9.02       7.22
H       1.69      10.60       5.07
H       8.13      10.68       5.18
H       7.26       9.01       7.27
C       4.94       7.47       6.41
C       2.24       7.53       8.80
C       4.93       7.17      11.54
C       7.62       7.29       8.65
C       4.07      11.54       8.34
C       3.98      12.92       8.29
C       4.90      13.70       9.02
C       5.87      13.01       9.77
C       5.88      11.61       9.77
C       4.90      15.15       9.08
C       5.00      -0.37       8.42
C       4.00       1.80       7.87
C       4.98       1.07       8.55
C       5.88       1.81       9.36
C       5.75       3.18       9.44
C       3.93       3.19       8.01
C       5.03       7.44       4.92
C       4.91       8.67       4.24
C       4.94       8.77       2.86
C       5.11       7.61       2.07
C       5.25       6.38       2.73
C       5.22       6.29       4.13
C       5.14       7.62       0.62
C       4.74       7.00      17.34
C       4.65       8.25      15.22
C       4.77       7.01      15.88
C       4.92       5.86      15.09
C       4.95       5.96      13.71
C       4.85       7.19      13.04
C       4.68       8.35      13.83
C       9.07       7.28       8.32
C       9.76       8.29       7.54
C       9.81       6.24       8.91
C       9.09       9.18       6.65
C       9.77      10.08       5.83
C       0.82       7.39       8.41
C       0.13       6.31       9.00
C       0.11       8.31       7.55
C       0.76       9.17       6.62
C       0.06      10.06       5.80
N       5.00      10.88       9.07
N       4.79       3.88       8.78
Cl       7.07      10.80      10.69
Cl       2.70       4.04       7.19
Cl       5.47       4.70       4.77
Cl       4.47       9.94      13.20
O       4.88       6.37       7.04
O       4.92       8.63       6.96
O       2.83       8.68       8.73
O       2.86       6.50       9.27
O       4.89       8.27      10.91
O       5.04       6.02      10.99
O       7.04       6.17       8.94
O       7.00       8.41       8.70
O       0.71       5.36       9.74
O       9.25       5.18       9.53
O       2.11       9.18       6.36
O       0.75      10.87       4.94
O       9.07      10.91       5.01
O       7.74       9.21       6.42
