56

Al       5.98       6.78       8.37
Al       2.65       6.78       8.37
H       4.32       8.16       7.25
H       7.65       5.44       9.54
H       8.82       7.00      12.33
H       8.72       7.18      14.84
H       6.35       7.40      14.99
H       6.45       7.25      12.46
H       5.61       6.15       1.75
H       3.24       6.38       1.90
H       3.14       6.56       4.42
H       5.51       6.31       4.28
H       7.25       3.08       8.91
H       7.09       1.74      10.06
H       6.31       3.31      10.39
H       5.65      10.25       6.36
H       4.87      11.82       6.68
H       4.71      10.48       7.84
C       7.69       9.19       8.40
C       7.60       6.57       5.97
C       4.27       4.37       8.34
C       4.37       6.98      10.77
C       4.31       7.11      12.26
C       9.73       7.09      12.93
C       9.67       7.19      14.31
C       4.21       7.30      15.05
C       5.45       7.32      14.38
C       5.50       7.23      13.00
C       6.51       6.24       2.36
C       7.75       6.26       1.70
C       2.29       6.37       2.44
C       2.23       6.47       3.82
C       7.65       6.45       4.48
C       6.46       6.33       3.74
C       5.33       2.11       8.89
C       6.63      11.45       7.85
C       4.33       2.91       8.34
C       7.63      10.65       8.40
C       6.97      12.81       8.04
C       5.00       0.74       8.71
C       6.56       2.58       9.60
C       5.40      10.98       7.14
S       3.01       2.01       7.63
S       8.95      11.54       9.11
N       4.27       7.40      16.45
N       7.69       6.16       0.29
O       6.60       8.57       8.16
O       8.69       6.86       6.56
O       3.14       4.92       8.10
O       5.49       7.15      10.21
O       5.36       4.99       8.58
O       3.27       6.70      10.19
O       8.83       8.64       8.63
O       6.47       6.41       6.53
O       4.32       7.34       7.77
O       7.65       6.22       8.97
