50

Al       4.02       5.74       8.39
Al       0.68       5.74       8.39
H      -1.00       4.19       7.57
H       2.36       7.28       9.21
H       1.17       5.57      12.35
H       1.27       5.41      14.87
H      -3.01       5.34      15.03
H      -3.11       5.48      12.50
H       4.38       6.13       1.75
H       0.09       6.06       1.91
H       0.19       5.90       4.43
H       4.48       5.99       4.28
C       2.31       3.33       8.53
C       2.39       5.82       5.97
C      -0.95       8.14       8.24
C      -1.02       5.65      10.80
C      -0.98       5.54      12.29
C       0.27       5.52      12.95
C       0.33       5.43      14.33
C      -0.87       5.37      15.08
C      -2.11       5.39      14.42
C      -2.16       5.47      13.03
C       3.47       6.08       2.36
C       2.23       6.10       1.70
C       1.04       6.04       2.44
C       1.10       5.95       3.83
C       2.34       5.93       4.49
C       3.53       6.00       3.75
C      -1.96      10.47       8.66
C       3.32       1.00       8.12
C      -0.95       9.60       8.27
C       2.31       1.87       8.51
C       2.95      -0.36       8.17
C      -1.59      11.83       8.61
S       0.51      10.46       7.83
S       0.86       1.01       8.94
N      -0.93       5.30      16.49
N       2.30       6.17       0.29
O       3.43       3.91       8.35
O       1.28       5.59       6.57
O       0.18       7.57       8.06
O      -2.16       5.53      10.24
O      -2.06       7.56       8.42
O       0.08       5.88      10.21
O       1.18       3.90       8.72
O       3.53       5.94       6.53
O      -0.99       5.12       7.84
O       2.35       6.35       8.94
F      -3.18      10.07       9.08
F       4.54       1.40       7.70
