62

Al       0.03      17.23      14.92
Al       4.01       8.61       9.95
H       2.92      11.69       6.22
H       1.14      11.67       6.24
H       1.11      11.69       3.72
H       2.89      11.67       3.70
H       2.92      10.30      14.47
H       1.14      10.29      14.44
H       1.11       3.85       0.80
H       2.89       3.88       0.80
H       2.92      21.08       9.15
H       1.14      21.11       9.15
H       1.11      18.92      10.40
H       2.89      18.91      10.42
C       2.03      19.01      13.92
C       2.03       8.58       2.04
C       2.03      15.47      13.87
C       2.00       8.58       7.90
C       2.00      10.40      10.94
C       2.00       6.86      10.99
C       2.03       8.55       6.41
C       2.00       8.55       3.53
C       2.04       9.72       5.67
C       2.02       7.34       4.27
C       2.00       9.72       4.28
C       2.02       7.34       5.68
C       2.03      11.24       5.77
C       2.00      11.24       4.18
C       2.03      11.71      11.65
C       2.00      14.20      13.09
C       2.04      11.76      13.04
C       2.02      14.17      11.68
C       2.00      12.97      13.74
C       2.02      12.95      10.98
C       2.03      10.92      14.31
C       2.00       3.68       0.18
C       2.03      22.82      11.77
C       2.00      20.32      13.21
C       2.04      21.58      11.13
C       2.02      21.56      13.89
C       2.00      20.38      11.82
C       2.02      22.78      13.18
C       2.03      20.91       9.76
C       2.00      19.54      10.56
Cl       1.99       5.84       3.43
Cl       2.05       5.84       6.52
Cl       1.99      15.65      10.80
Cl       2.05      12.97       9.25
Cl       1.99      12.97       0.69
Cl       2.05      24.26      14.06
O       1.10      15.65      14.72
O       1.09      18.19      13.65
O       1.10       9.23       1.47
O       3.00      16.27      13.66
O       3.00       8.00       1.46
O       3.00      18.80      14.72
O       1.04       7.66      11.21
O       1.04       8.00       8.49
O       1.04      10.19      10.14
O       2.94       7.03      10.15
O       2.94       9.58      11.21
O       2.94       9.23       8.48
