186

Zr      12.64      30.85      15.38
Zr      19.98       1.77       0.00
Zr      10.87      10.87      12.87
Zr      21.75      21.75       2.50
Zr      12.64      12.64      15.38
Zr      30.85      30.85      15.38
H      13.66      10.87      13.41
H      21.75       2.79       1.97
H      29.84      10.87      13.41
H      21.75      18.96       1.97
C       4.49      21.75       0.06
C      10.87      15.36      15.32
C      17.26      21.75       0.06
C      10.87      28.13      15.32
C      13.08      30.34      12.20
C       2.28      19.54       3.17
C      19.46      23.95       3.17
C       8.67      13.16      12.20
C      13.08      13.16      12.20
C       8.67      30.34      12.20
C      19.46      19.54       3.17
C       2.28      23.95       3.17
C       5.99      21.75       0.03
C       6.73      20.55       0.02
C       8.12      20.55       0.00
C      19.73      10.88      15.37
C       8.12       1.20       0.00
C       6.73       1.20       0.02
C      21.14      10.88      15.36
C      22.36      10.88      15.36
C      23.76      10.88      15.37
C      24.50      31.42      15.38
C      15.01      20.55       0.02
C      15.76      21.75       0.03
C      15.01       1.20       0.02
C      24.50      12.07      15.38
C      10.87      26.63      15.34
C      12.07      25.89      15.36
C      12.07      24.50      15.38
C      21.75      12.89       0.00
C      31.42      24.50      15.38
C      31.42      25.89      15.36
C      21.75      11.48       0.01
C      21.75      10.27       0.01
C      21.75       8.86       0.00
C      12.07      19.00      15.38
C      12.07      17.61      15.36
C      10.87      16.86      15.34
C      31.42      17.61      15.36
C      31.42      19.00      15.38
C       3.02      24.72       4.23
C       3.98       3.95       3.91
C       4.66       4.66       4.90
C      26.18       4.43       6.27
C      25.21      25.21       6.59
C      24.53      24.50       5.61
C      26.87       5.14       7.26
C      27.48       5.75       8.12
C      28.19       6.45       9.11
C       7.41       7.41       8.79
C       8.12       8.10       9.77
C       7.90      29.60      11.14
C      28.67      28.64      11.47
C      27.96      27.96      10.48
C      18.73      18.78       4.23
C      17.77      17.79       3.91
C      17.09      17.09       4.90
C      17.32      17.32       6.27
C      18.28      18.29       6.59
C      18.97      19.00       5.61
C      16.62      16.61       7.26
C      16.01      16.00       8.12
C      15.31      15.30       9.11
C      14.34      14.34       8.79
C      13.63      13.65       9.77
C      13.84      13.89      11.14
C      14.83      14.85      11.47
C      15.53      15.54      10.48
C      13.84      29.60      11.14
C      13.63       8.10       9.77
C      14.34       7.41       8.79
C      15.31       6.45       9.11
C      15.53      27.96      10.48
C      14.83      28.64      11.47
C      16.01       5.75       8.12
C      16.62       5.14       7.26
C      17.32       4.43       6.27
C      17.08       4.66       4.90
C      17.77       3.95       3.91
C      18.73      24.72       4.24
C      18.97      24.50       5.61
C      18.28      25.21       6.59
C       3.02      18.78       4.23
C       3.98      17.79       3.91
C       4.66      17.09       4.90
C      26.18      17.32       6.26
C      25.21      18.29       6.59
C      24.53      19.00       5.61
C      26.87      16.61       7.26
C      27.48      16.00       8.12
C      28.19      15.30       9.11
C       7.41      14.34       8.79
C       8.12      13.65       9.77
C       7.90      13.89      11.14
C      28.67      14.86      11.47
C      27.96      15.54      10.48
O       3.91      20.62       0.06
O      31.49      14.78      15.32
O      17.84       1.13       0.06
O      12.00      28.72      15.32
O      12.22       9.45      11.81
O      23.17      20.40       3.56
O      20.32      23.10       3.56
O       9.53      12.30      11.81
O      13.35      13.43      13.42
O      30.14      30.06      13.42
O      19.19      19.27       1.96
O       2.56       2.48       1.96
O       9.53       9.45      11.81
O      20.32      20.40       3.56
O      23.17      23.10       3.56
O      12.22      12.30      11.81
O      13.35      30.06      13.42
O      30.14      13.43      13.42
O      19.19       2.48       1.96
O       2.56      19.27       1.96
O      31.49      28.72      15.32
O       3.91       1.13       0.05
O      12.01      14.78      15.32
O      17.84      20.62       0.06
O      21.75      19.75       1.41
O      30.63      10.87      13.97
O      21.75       1.99       1.41
O      12.87      10.87      13.97
O      10.87      12.34      14.34
O       1.46      21.75       1.04
O      20.28      21.75       1.04
O      10.87      31.16      14.34
F       6.14      19.34       0.02
F       6.14       2.41       0.02
F      19.66      13.25      15.37
F      19.66      30.25      15.37
F      23.84      30.25      15.37
F      23.84      13.25      15.37
F      15.61       2.41       0.02
F      15.61      19.34       0.02
F      13.28      26.48      15.36
F      30.21      26.48      15.36
F      19.37      12.97       0.01
F       2.37      12.97       0.01
F       2.37       8.78       0.01
F      19.37       8.78       0.01
F      30.21      17.01      15.36
F      13.28      17.02      15.36
F       4.29       4.26       2.64
F      23.63      23.60       6.04
F      24.95      24.96       7.89
F       5.57       5.58       4.53
F       7.67       7.67       7.49
F      27.04      27.05      10.85
F      28.36      28.34      12.74
F       9.02       8.99       9.33
F      17.46      17.49       2.64
F      19.87      19.89       6.04
F      18.55      18.54       7.89
F      16.18      16.17       4.53
F      14.08      14.07       7.49
F      16.46      16.45      10.85
F      15.13      15.16      12.74
F      12.73      12.75       9.33
F      12.73       9.00       9.33
F      15.13      28.34      12.74
F      16.46      27.05      10.85
F      14.08       7.67       7.49
F      16.17       5.58       4.53
F      18.55      24.96       7.89
F      19.87      23.60       6.04
F      17.46       4.26       2.64
F       4.29      17.49       2.64
F      23.63      19.89       6.04
F      24.95      18.54       7.89
F       5.57      16.17       4.53
F       7.67      14.08       7.49
F      27.04      16.45      10.85
F      28.36      15.16      12.74
F       9.02      12.75       9.33
