104

Co      16.86       7.59      12.19
Co       9.67       0.65       6.81
Co       0.83       6.30       0.48
Co       8.01      13.25       5.86
H      14.26       6.46      11.39
H      12.28      13.41       7.60
H       3.43       7.44       1.27
H       5.41       0.49       5.06
H      11.94       7.10      10.73
H      14.60       0.15       8.26
H       5.75       6.80       1.93
H       3.09      13.75       4.40
H      13.23      11.22      10.82
H      13.30       4.27       8.18
H       4.46       2.68       1.85
H       4.39       9.63       4.49
H      15.50      10.39      11.47
H      11.03       3.44       7.52
H       2.19       3.51       1.19
H       6.66      10.46       5.14
H       7.31      10.39       9.33
H       7.39       3.44       9.66
H      10.38       3.50       3.33
H      10.30      10.45       3.00
H      11.51      11.31       9.12
H      15.02       4.36       9.87
H       6.18       2.59       3.54
H       2.67       9.53       2.79
H      10.11       8.04      11.57
H       4.59       1.09       7.43
H       7.58       5.86       1.09
H      13.10      12.81       5.24
C      13.98       7.50      11.25
C      12.55       0.55       7.74
C       3.71       6.40       1.41
C       5.14      13.35       4.92
C      12.69       7.87      10.90
C      13.84       0.92       8.10
C       5.00       6.03       1.77
C       3.85      12.98       4.56
C      12.38       9.23      10.73
C      14.16       2.28       8.27
C       5.31       4.67       1.94
C       3.53      11.62       4.40
C      13.42      10.15      10.92
C      13.12       3.20       8.08
C       4.27       3.75       1.74
C       4.57      10.70       4.59
C      14.68       9.70      11.29
C      11.85       2.75       7.71
C       3.01       4.20       1.38
C       5.84      11.15       4.95
C       8.33      10.18       9.64
C       6.37       3.24       9.36
C       9.35       3.71       3.03
C      11.32      10.66       3.30
C       9.39      10.96       9.14
C       5.31       4.01       9.85
C       8.30       2.94       3.52
C      12.38       9.89       2.81
C      10.71      10.70       9.53
C      15.82       3.75       9.46
C       6.98       3.20       3.13
C       1.86      10.15       3.20
C      11.00       9.62      10.38
C      15.54       2.67       8.62
C       6.69       4.28       2.29
C       2.15      11.23       4.04
C       9.93       8.86      10.88
C       4.77       1.91       8.12
C       7.76       5.04       1.78
C      12.92      11.99       4.55
C       8.60       9.15      10.54
C       6.10       2.20       8.46
C       9.08       4.75       2.13
C      11.59      11.70       4.21
C       9.13      12.04       8.15
C       5.57       5.09      10.85
C       8.55       1.86       4.52
C      12.12       8.81       1.81
C       7.53       8.34      11.18
C       7.18       1.39       7.81
C      10.16       5.56       1.48
C      10.51      12.51       4.85
N      14.96       8.39      11.46
N      11.57       1.44       7.54
N       2.72       5.50       1.21
N       6.12      12.45       5.12
O       6.30       8.66      11.02
O       8.40       1.71       7.97
O      11.39       5.24       1.64
O       9.29      12.19       4.69
O       7.92       7.37      11.91
O       6.78       0.42       7.09
O       9.77       6.53       0.76
O      10.90      13.48       5.58
O       8.20      11.86       7.30
O       6.50       4.92      11.70
O       9.49       2.03       5.37
O      11.19       8.98       0.97
O       9.89      13.07       8.18
O      16.65       6.12      10.81
O       7.80       0.83       4.48
O       1.04       7.78       1.85
