392

Zn       7.62      16.06       8.79
Zn       5.67      17.29       6.98
Zn      24.76      31.94      23.61
Zn       7.28      21.05       1.42
Zn      11.80      21.40      12.40
Zn      13.76      22.62      10.58
Zn       7.62       1.72       3.21
Zn      12.14      26.37       5.02
H       4.51      10.40       9.07
H       5.74      12.56       8.95
H      15.59      14.18       6.43
H      14.35      12.05       6.59
H       3.73       8.47       7.76
H      13.19      10.92       8.31
H      15.34       6.44       8.14
H      11.11      10.85       6.89
H      10.03      13.08       7.27
H       9.20      12.02      11.35
H      10.32       9.80      10.99
H       9.64       7.81       9.14
H      17.59      25.63       2.24
H      17.63      27.41       3.95
H       8.67      26.23       5.08
H       8.60      24.41       3.40
H      11.96       3.50       4.69
H      12.06       5.20       6.47
H      20.83      26.72       7.07
H      21.65      29.12      11.13
H      10.20      27.51       7.59
H      21.02      26.60      11.22
H      11.72      25.57       8.01
H       9.53      24.63      11.60
H       8.91       4.28       9.36
H       8.73       6.03       9.60
H       7.67       5.33       7.44
H       9.08       6.35       7.08
H       9.20       4.58       6.91
H      21.10      30.41      12.62
H      14.33       6.26      12.87
H       3.83       5.83      12.88
H       3.75       5.10      11.26
H      16.35       6.84      11.48
H      14.92      30.08      18.26
H      13.69      30.77      20.32
H      16.79      29.04      22.76
H      18.03      28.39      20.72
H      15.70      28.14      16.96
H      19.20      29.57      19.02
H      17.04      27.73      14.94
H      21.28      28.23      19.49
H      22.36      29.42      21.41
H      23.18      32.80      18.91
H      22.07      31.64      16.98
H      22.74      29.17      15.83
H       8.31      19.75      10.93
H       8.28      22.01      11.94
H      17.23      22.62      10.43
H      17.30      20.38       9.37
H      20.41      23.43      13.50
H      20.32      25.73      14.41
H      18.03      24.65      10.13
H      17.20      29.31      10.85
H      15.70      25.43      10.67
H      17.84      28.46       8.48
H      14.18      25.10       8.72
H      16.37      28.07       6.50
H      10.52      28.06      12.47
H      10.69      28.94      14.00
H      11.76      26.67      14.16
H      10.35      26.72      15.25
H      10.23      25.91      13.67
H      11.28       5.29      11.49
H      11.57       6.17      12.99
H       9.12       6.02      12.59
H      15.68      30.13      12.53
H      16.03      30.98      14.05
H      14.92      23.26      17.75
H      13.69      22.56      15.70
H      16.79      24.29      13.25
H      18.03      24.95      15.29
H      15.70      25.20      19.05
H      19.19      23.77      16.99
H      17.04      25.60      21.08
H      21.27      25.11      16.52
H       9.40      23.92      14.60
H      10.22      20.54      17.09
H       9.11      21.70      19.02
H       9.78      24.16      20.18
H      14.78      23.90       1.07
H      14.75      21.64       0.06
H      10.75      21.04       1.58
H      10.82      23.28       2.64
H      20.42      29.90      22.51
H      20.32      27.61      21.60
H      11.55      19.01       1.87
H      10.73      14.35       1.16
H       9.22      18.23       1.33
H      11.36      15.20       3.53
H       7.71      18.56       3.28
H       9.89      15.60       5.50
H      10.52      25.28      23.54
H      10.69      24.39      22.00
H      11.75      26.67      21.84
H      10.34      26.61      20.76
H      23.18      27.43      22.34
H      11.28      12.49       0.52
H      18.05      21.28      23.01
H      15.59      21.43      23.42
H      15.68      23.21      23.48
H      16.03      22.36      21.96
H       4.50       7.37       2.93
H       5.73       5.21       3.06
H       2.64       3.59       5.58
H      14.34       5.73       5.42
H       3.72       9.30       4.25
H      13.18       6.86       3.69
H      15.34      11.34       3.86
H      11.10       6.93       5.11
H      10.02       4.70       4.73
H       9.20       5.76       0.66
H      10.31       7.98       1.01
H       9.64       9.97       2.87
H      11.12      18.04       9.77
H      11.15      16.25       8.05
H      15.15      17.43       6.92
H      15.08      19.25       8.60
H      11.96      14.27       7.32
H      12.06      12.58       5.53
H      14.35      16.95       4.93
H      15.17      14.54       0.88
H      16.68      16.15       4.41
H      14.54      17.06       0.78
H       5.25      18.08       3.98
H      16.01      19.03       0.40
H       8.90      13.50       2.64
H       8.73      11.75       2.40
H       7.67      12.45       4.57
H       9.08      11.43       4.92
H       9.19      13.20       5.09
H      21.10      22.93      23.39
H      20.81      21.20      23.14
H      10.31      21.63      23.13
H       3.75      12.67       0.75
H       3.39      10.94       0.52
C      15.81      11.08       7.84
C      17.06      11.22       8.48
C       4.80      12.43       8.41
C      17.22      13.51       7.68
C      16.00      13.35       7.00
C      15.30      12.15       7.10
C      15.01       9.84       8.01
C      15.62       8.55       7.97
C      13.65       9.93       8.24
C      12.85       8.78       8.45
C      14.87       7.42       8.18
C      13.47       7.49       8.44
C      11.45       8.87       8.75
C      10.79      10.18       8.92
C      10.71      11.11       7.88
C      10.11      12.35       8.08
C       9.58      12.69       9.33
C       9.63      11.76      10.38
C      10.24      10.52      10.17
C      10.71       7.72       8.93
C      11.32       6.44       8.89
C      12.69       6.32       8.69
C      18.47      25.76       2.87
C      19.56      24.89       2.73
C      18.50      26.76       3.84
C      19.62      26.92       4.68
C       7.77      26.07       4.48
C       7.75      25.07       3.53
C      19.65      27.93       5.75
C      12.51       3.29       5.61
C      12.57       4.25       6.60
C      20.36      27.69       6.92
C      20.46      28.65       7.96
C      13.30       4.02       7.80
C      13.35       5.00       8.83
C      14.01       4.70      10.02
C      21.14      29.34      10.19
C      21.16      28.40       9.18
C       9.02      27.18       9.37
C      10.04      26.87       8.46
C       8.85      26.36      10.51
C      10.89      25.78       8.69
C       9.67      25.26      10.72
C      10.71      24.98       9.82
C       9.20       5.26       8.96
C       8.77       5.40       7.51
C      14.77       5.53      12.18
C      16.24       5.84      11.93
C      11.68      23.90      10.12
C       6.56      23.74       1.79
C      17.94      14.80       7.65
C       8.90      14.01       9.51
C      16.57      29.20      19.35
C      15.32      29.84      19.25
C      14.63      30.23      20.39
C      15.16      29.95      21.66
C      16.38      29.27      21.77
C      17.08      28.91      20.63
C      17.37      28.89      18.14
C      16.77      28.38      16.96
C      18.73      29.14      18.13
C      19.54      28.90      16.99
C      17.52      28.14      15.83
C      18.91      28.41      15.80
C      20.93      29.21      16.96
C      21.60      29.86      18.11
C      21.68      29.24      19.37
C      22.27      29.89      20.44
C      22.80      31.18      20.28
C      22.75      31.80      19.03
C      22.14      31.15      17.95
C      21.67      28.95      15.82
C      21.06      28.43      14.66
C      19.69      28.20      14.62
C       7.43      20.39      10.82
C      19.29      19.93      10.06
C       7.41      21.66      11.39
C      19.24      22.50      11.22
C      18.13      22.01      10.51
C      18.15      20.75       9.93
C      19.20      23.88      11.75
C      19.87      24.21      12.97
C      19.81      25.48      13.48
C      18.50      24.87      11.09
C      18.40      26.19      11.59
C      19.08      26.52      12.82
C      19.03      27.84      13.34
C      18.37      28.83      12.62
C      17.72      28.52      11.40
C      17.70      27.23      10.90
C      16.88      26.96       9.70
C      15.86      25.99       9.75
C      17.05      27.71       8.52
C      15.01      25.80       8.66
C      16.23      27.50       7.42
C      15.19      26.55       7.49
C      10.23      28.06      13.53
C      10.66      26.76      14.20
C      11.13       5.26      12.58
C      16.14      31.02      12.96
C      14.22      26.43       6.38
C       6.39      18.64       9.34
C      14.44      30.41      22.87
C      23.48      31.84      21.44
C      16.57      24.14      16.67
C      15.32      23.50      16.76
C      14.63      23.11      15.62
C      15.16      23.39      14.35
C      16.38      24.07      14.24
C      17.08      24.43      15.39
C      17.36      24.45      17.87
C      16.76      24.96      19.05
C      18.73      24.20      17.88
C      19.53      24.43      19.02
C      17.51      25.20      20.18
C      18.91      24.93      20.21
C      20.93      24.13      19.05
C      21.59      23.47      17.90
C      21.67      24.10      16.64
C       9.31      23.44      15.57
C       9.85      22.16      15.73
C       9.79      21.54      16.98
C       9.19      22.19      18.05
C      21.67      24.39      20.19
C      21.06      24.91      21.35
C      19.69      25.14      21.39
C      13.91      23.27       1.18
C      12.82      23.73       1.94
C      13.88      21.99       0.62
C      12.76      21.15       0.79
C      11.65      21.65       1.50
C      11.68      22.91       2.08
C      12.73      19.78       0.25
C      19.87      29.13      23.05
C      19.81      27.85      22.53
C      12.02      18.78       0.91
C      11.92      17.47       0.41
C      19.08      26.82      23.19
C      19.03      25.50      22.67
C      18.37      24.50      23.39
C      11.24      15.13       0.60
C      11.22      16.43       1.10
C      10.41      16.70       2.30
C       9.38      17.67       2.25
C      10.58      15.96       3.48
C       8.54      17.86       3.34
C       9.76      16.17       4.58
C       8.72      17.11       4.51
C      10.23      25.28      22.48
C      10.66      26.57      21.81
C      17.61      22.20      23.43
C      16.14      22.31      23.05
C       7.75      17.23       5.62
C      12.87      25.02       2.66
C      14.43      22.93      13.14
C      10.52      21.50      14.57
C       2.85       6.70       4.16
C       4.10       6.55       3.53
C       4.79       5.35       3.59
C       4.27       4.27       4.33
C       3.04       4.42       5.00
C       2.34       5.62       4.90
C      15.01       7.93       3.99
C      15.61       9.22       4.03
C      13.64       7.84       3.76
C      12.84       8.99       3.55
C      14.86      10.36       3.82
C      13.46      10.29       3.56
C      11.44       8.91       3.26
C      10.78       7.60       3.08
C      10.70       6.67       4.13
C      10.11       5.43       3.92
C       9.58       5.09       2.67
C       9.63       6.02       1.62
C      10.23       7.26       1.83
C      10.71      10.06       3.07
C      11.32      11.34       3.12
C      12.69      11.46       3.32
C      12.00      17.90       9.14
C      13.09      18.77       9.28
C      12.02      16.90       8.17
C      13.14      16.74       7.33
C      14.25      17.58       7.52
C      14.22      18.59       8.47
C      13.17      15.73       6.26
C      12.51      14.48       6.40
C      12.57      13.53       5.41
C      13.88      15.97       5.08
C      13.98      15.01       4.05
C      13.30      13.76       4.20
C      13.34      12.78       3.17
C      14.01      13.08       1.98
C      14.66      14.32       1.81
C      14.68      15.26       2.82
C      15.50      16.48       2.63
C      16.52      16.79       3.54
C      15.33      17.30       1.49
C      17.37      17.87       3.31
C      16.15      18.40       1.28
C      17.19      18.68       2.18
C       9.19      12.52       3.04
C       8.76      12.39       4.49
C      21.25      21.93      23.83
C       3.29      11.94       0.07
C      18.16      19.75       1.88
C      13.04      19.92      10.21
C       4.99       2.98       4.35
C       8.90       3.77       2.49
O      13.97       5.67      10.98
O      10.63       5.28       9.12
O      12.72      23.76       9.36
O      11.54      23.19      11.17
O      17.54      15.70       6.80
O       5.96      14.97       8.46
O      18.54      23.65       0.96
O       7.51      22.88       1.91
O       9.16      14.90       8.59
O       8.09      14.23      10.44
O      18.40      30.08      13.16
O      21.75      28.20      13.49
O      13.19      25.67       6.53
O      14.36      27.14       5.33
O       8.36      20.28       0.02
O      13.48      31.23      22.73
O       7.35      17.84       9.57
O      18.39      18.43       8.49
O      23.22      31.31      22.61
O      24.29      32.78      21.30
O      18.40      23.25      22.85
O      21.75      25.13      22.52
O       6.71      17.99       5.47
O       7.89      16.53       6.68
O      14.83      23.38      11.99
O      13.47      22.12      13.28
O      13.83      25.83       2.43
O      11.92      25.23       3.50
O      10.27      22.03      13.40
O      11.34      20.56      14.71
O      13.97      12.11       1.02
O      10.63      12.50       2.89
O       6.24      19.91       2.64
O      18.02      20.47       0.83
O      11.07      27.96       5.20
O       5.95       2.80       3.54
O      12.07      20.02      11.04
O      13.99      20.79      10.09
O       9.16       2.88       3.42
O       8.09       3.55       1.56
