192

Cu       4.08      27.23      29.81
Cu       5.36      29.85      28.56
Cu       2.82      28.48      27.17
Cu      27.97      10.95      19.12
Cu      26.68      13.56      20.40
Cu      29.26      12.22      21.73
Cu      20.06      21.64       2.85
Cu      21.30      18.98       4.07
Cu      18.73      20.34       5.42
Cu      12.02       5.31      13.52
Cu      10.70       2.73      12.22
Cu      13.25       4.09      10.85
H       6.18      26.63      32.13
H       7.62      30.48      30.73
H       0.56      26.31      26.55
H       1.98      24.93      30.41
H       5.93      32.20      26.49
H       2.28      30.56      24.82
H      25.93      10.39      16.75
H      24.36      14.14      18.27
H      31.56      10.08      22.33
H      30.03       8.59      18.55
H      26.13      15.90      22.48
H      29.83      14.29      24.07
H      22.16      22.25       0.55
H      23.56      18.36       1.89
H      16.41      22.46       6.00
H      18.01      24.01       2.28
H      21.85      16.64       6.15
H      18.16      18.26       7.75
H       9.97       5.87      15.89
H       8.39       2.14      14.35
H      15.51       6.26      10.23
H      14.13       7.61      14.12
H      10.13       0.39      10.15
H      13.80       2.02       8.50
C      20.90      12.24      13.13
C      19.99      13.15      11.28
C      19.08      11.30      12.19
C      11.15      28.56       3.18
C      12.97      27.62       4.11
C      12.06      29.47       5.02
C       4.93       4.00      19.50
C       4.02       3.10      21.34
C       3.12       4.95      20.43
C      27.11      20.31      29.45
C      28.92      21.25      28.51
C      28.01      19.41      27.60
C       6.36      27.56      31.61
C       7.33      28.55      31.87
C       7.09      29.54      30.90
C       1.08      26.15      27.49
C       0.84      25.18      28.48
C       1.80      25.45      29.48
C       5.05      31.62      26.26
C       4.11      31.81      25.22
C       3.16      30.78      25.41
C      25.72      11.30      17.30
C      24.72      12.27      17.07
C      24.92      13.23      18.08
C      31.01       9.90      21.41
C      31.22       8.90      20.44
C      30.23       9.14      19.47
C      27.03      15.33      22.70
C      27.98      15.53      23.71
C      28.93      14.51      23.51
C      22.33      21.30       1.05
C      23.28      20.31       0.78
C      23.04      19.30       1.74
C      16.97      22.66       5.10
C      16.79      23.68       4.14
C      17.79      23.45       3.18
C      20.96      17.21       6.37
C      20.00      17.02       7.39
C      19.06      18.04       7.19
C       9.76       4.96      15.34
C       8.76       4.00      15.56
C       8.95       3.04      14.55
C      15.00       6.42      11.17
C      15.25       7.37      12.17
C      14.29       7.10      13.17
C      11.02       0.96       9.92
C      11.96       0.77       8.90
C      12.91       1.79       9.08
C      10.11      28.57       2.12
C       8.33      28.58       0.28
C      21.94      12.25      14.19
C      23.72      12.27      16.03
C      26.07      20.30      30.52
C      24.29      20.28      32.36
C       5.98       4.00      18.44
C       7.76       4.00      16.60
C      29.96      22.31      28.50
C      31.75      24.15      28.49
C      18.04      10.24      12.18
C      16.25       8.40      12.18
C       2.08       6.02      20.44
C       0.31       7.86      20.44
C      14.01      26.56       4.12
C      15.79      24.72       4.14
C       4.01       2.04      22.39
C       3.99       0.24      24.20
C      19.99      14.20      10.23
C      20.00      16.00       8.41
C      12.07      30.52       6.07
C      12.08      32.34       7.88
C      28.00      18.36      26.55
C      27.99      16.55      24.73
N      20.95      13.21      12.21
N      19.02      12.22      11.22
N      19.99      11.25      13.17
N      12.06      27.58       3.13
N      13.03      28.54       5.09
N      11.10      29.54       4.10
N       4.99       3.03      20.42
N       3.05       4.03      21.41
N       4.03       4.99      19.45
N      28.02      21.30      29.50
N      28.98      20.33      27.54
N      27.04      19.34      28.53
N       6.07      29.16      30.11
N       5.61      27.94      30.56
N       2.56      26.49      29.10
N       2.10      26.93      27.87
N       3.52      30.04      26.46
N       4.68      30.56      27.00
N      25.95      12.86      18.85
N      26.45      11.67      18.36
N      29.49      10.19      19.84
N      29.98      10.67      21.04
N      28.56      13.76      22.46
N      27.38      14.28      21.94
N      22.03      19.68       2.53
N      21.58      20.92       2.09
N      18.53      22.39       3.55
N      18.01      21.89       4.73
N      19.42      18.78       6.13
N      20.60      18.26       5.62
N       9.99       3.42      13.78
N      10.49       4.60      14.28
N      13.53       6.07      12.79
N      13.98       5.63      11.56
N      12.55       2.54      10.13
N      11.39       2.02      10.67
N       9.49      27.40       1.86
N       9.88      29.75       1.50
N       8.97      29.75       0.54
N       8.56      27.40       0.93
N      22.11      13.40      14.87
N      22.62      11.11      14.39
N      23.55      11.12      15.33
N      23.01      13.41      15.83
N      25.83      19.12      31.13
N      25.46      21.47      30.79
N      24.53      21.46      31.73
N      24.93      19.11      32.09
N       6.15       2.85      17.76
N       6.65       5.15      18.24
N       7.58       5.14      17.31
N       7.06       2.85      16.80
N      30.20      22.93      27.33
N      30.59      22.57      29.67
N      31.52      23.50      29.66
N      31.11      23.89      27.32
N      17.80       9.62      11.01
N      17.43       9.98      13.36
N      16.50       9.04      13.35
N      16.89       8.67      11.00
N       1.90       6.68      21.60
N       1.42       6.23      19.28
N       0.49       7.17      19.29
N       0.99       7.65      21.60
N      14.17      25.87       5.28
N      14.69      26.36       2.98
N      15.62      25.43       2.99
N      15.08      24.91       5.28
N       2.86       1.36      22.56
N       5.15       1.87      23.09
N       5.14       0.95      24.04
N       2.86       0.41      23.48
N      21.14      14.37       9.54
N      18.85      14.89      10.05
N      18.86      15.83       9.13
N      21.14      15.29       8.60
N      13.21      31.22       6.24
N      10.93      30.69       6.78
N      10.94      31.62       7.72
N      13.22      32.16       7.15
N      26.85      18.19      25.86
N      29.14      17.66      26.37
N      29.13      16.71      25.45
N      26.85      17.27      24.91
