140

Al       5.69      10.10      11.94
Al       2.36      10.03      12.04
Al       1.59      20.25       0.04
Al       4.82      -0.15      23.90
H       4.87      12.87       4.14
H       6.29      12.66       8.30
H       2.24      14.23      11.32
H       2.41      17.47       7.83
H       4.63      14.08       2.04
H       5.04      16.11       0.66
H       0.99      17.69       3.68
H       5.70      12.72       6.44
H       1.58      17.62       5.54
H       2.66      16.26       9.93
H       0.89       7.45       5.57
H       0.47       6.03       3.77
H       5.06       3.69       5.84
H       4.97       5.00       4.65
H       5.25       6.61       6.33
H       5.13       5.32       7.52
H       2.13       3.35       5.75
H       0.66       2.59       6.36
H       2.17       4.65       7.71
H       2.02       5.25       4.09
H       2.33       6.53       6.02
H       0.59       4.05       8.19
H       1.24      15.02      19.19
H       1.80      13.34      17.65
H       5.49      13.84      18.02
H       4.18      12.73      18.41
H       3.41      14.09      20.16
H       4.92      14.99      19.99
H       3.53      16.08      15.79
H       5.17      15.64      16.26
H       3.54      17.56      17.61
H       1.57      14.55      16.39
H       1.34      16.28      17.96
H       5.02      16.85      18.26
H       1.49       7.24      19.80
H       2.95       7.47      15.67
H       5.58       5.90      12.66
H       5.70       2.64      16.13
H       1.21       6.02      21.89
H       1.61       3.97      23.27
H       4.24       2.41      20.27
H       2.35       7.40      17.52
H       4.84       2.48      18.41
H       5.97       3.86      14.05
H       3.95      10.79      10.41
H       0.63       9.46      13.64
H       3.33      19.58       1.58
H      -0.09       0.48      22.34
C       4.03      11.61      13.86
C       4.07       8.03      13.30
C       0.73       8.51      10.13
C       0.73      12.10      10.68
C       6.38      17.00       2.11
C       0.89      13.35       9.87
C       5.28      14.88       2.41
C       5.51      15.99       1.63
C       0.32      16.89       3.36
C       0.02      15.81       4.22
C       5.82      14.77       3.71
C       0.49      15.73       5.58
C       0.13      14.62       6.39
C       5.97      13.59       5.83
C       5.51      13.66       4.55
C       1.31      16.75       6.14
C       1.78      16.68       7.43
C       1.46      15.57       8.26
C       0.61      14.54       7.76
C       2.01      15.46       9.57
C       1.76      14.35      10.34
C       0.30      13.46       8.62
C       1.06       5.52       4.54
C       5.56       4.60       5.49
C       5.68       5.65       6.63
C       0.71       7.55       9.05
C       0.32       4.22       4.97
C       1.26       6.44       5.77
C       0.52       5.86       7.00
C       1.15       4.49       7.35
C       1.12       3.56       6.12
C       0.63       6.78       8.12
C       0.23       3.31       3.84
C       0.17       2.52       2.92
C       2.13      14.33      17.31
C       4.41      13.79      18.23
C       4.02      14.66      19.45
C       2.91      17.59      21.01
C       3.64      14.27      16.97
C       1.87      15.41      18.38
C       3.22      15.90      18.98
C       4.03      16.61      17.86
C       4.14      15.69      16.62
C       3.02      16.81      20.08
C       3.87      13.35      15.86
C       4.00      12.57      14.94
C       2.97       3.10      21.83
C       4.22       6.78      14.11
C       1.86       5.22      21.53
C       2.09       4.10      22.30
C       3.57       3.21      20.59
C       3.27       4.30      19.73
C       2.42       5.33      20.23
C       3.77       4.38      18.37
C       3.42       5.50      17.57
C       2.61       6.53      18.12
C       2.12       6.45      19.40
C       4.58       3.35      17.81
C       5.06       3.43      16.54
C       4.77       4.55      15.71
C       3.92       5.59      16.21
C       5.33       4.66      14.41
C       5.10       5.78      13.63
C       3.62       6.67      15.35
C       3.12       1.85      22.64
C       2.88      18.55      22.08
C      -0.11      18.25       1.31
C       0.16       1.55       1.85
O       2.91       8.53      13.12
O       5.17      11.25      13.42
O       6.21      11.65      10.92
O       5.17       8.51      12.87
O       6.25       8.99      10.47
O       2.89      11.21      13.47
O       4.01      10.22      11.19
O       1.87       8.81      10.62
O       1.82      11.57      11.04
O       0.68       9.92      12.79
O       4.02      18.99      22.45
O       2.03       1.34      23.03
O       1.30       1.11       1.49
O       1.74      18.89      22.55
O       1.05      18.72       1.10
O       4.29       1.38      22.85
O       3.27      20.13       0.79
O       5.44      18.75       0.91
O       5.68       1.21       1.38
O      -0.15      -0.04      23.15
