99

Al       6.94       9.38       8.61
Al       3.62       9.38       8.62
Al       4.87      18.73      17.16
Al       8.19      18.75      17.17
H       5.54       2.29       3.46
H       3.91       5.48       3.24
H       5.56       4.06       5.23
H       3.94       7.18       5.06
H       6.68       5.97       6.33
H       3.16       5.20      11.01
H       4.52       6.02      13.38
H       3.25       8.56      13.14
H       7.78       7.57      14.78
H       6.42       6.76      12.42
H       7.70       4.22      12.64
H       5.34      14.72       4.71
H       3.35      13.02       5.85
H       4.91       9.90       3.89
H       6.86      11.64       2.71
H       7.32      12.76       5.29
H       4.56      15.41      14.93
H       8.54      16.42      13.68
H       3.37      13.50      13.85
H       1.81      14.64      11.93
H       3.30      11.72      12.10
H       7.27      12.74      10.84
H       2.03      11.29       3.75
H       2.66      11.52       2.23
H       5.27       7.77       9.27
H       1.96      11.05       8.08
H       4.14       1.76       0.22
H       1.64      13.80       0.81
C       5.32      10.84       6.70
C       5.24      11.09      10.31
C       1.90       7.92      10.52
C       2.00       7.69       6.88
C       0.81       2.81       2.69
C       1.97       6.67       5.79
C       3.06       5.57       3.92
C       3.08       6.52       4.92
C       0.87       5.85       5.65
C       0.84       4.83       4.67
C       1.95       4.70       3.77
C       1.91       3.66       2.78
C       6.39       2.97       3.58
C       6.40       3.95       4.54
C       3.47       6.19      13.15
C       2.71       5.72      11.86
C       1.99       7.11      11.76
C       2.76       7.59      13.05
C       1.57       7.06      13.93
C       7.48       6.59      12.64
C       1.52       5.19      12.74
C       2.30       5.67      14.03
C       4.14      12.72       5.15
C       5.24      13.64       4.54
C       5.01      12.99       3.12
C       3.89      12.07       3.75
C       5.01      10.98       4.05
C       6.10      11.92       3.44
C       6.35      12.57       4.84
C       5.24      11.65       5.47
C       6.55      16.00      14.40
C       5.29      12.14      11.37
C       4.21      13.34      13.18
C       4.17      12.35      12.22
C       6.42      12.93      11.50
C       6.48      13.97      12.45
C       5.36      14.18      13.32
C       5.41      15.22      14.27
C       7.67      15.79      13.55
C       7.62      14.80      12.59
C       6.59      17.05      15.46
C       4.95      13.81       1.88
C       0.75       1.72       1.66
C       2.38       4.86      15.26
C       3.02       3.58       1.88
N       3.97       3.64       1.19
N       2.61      11.91       3.18
O       4.10      10.55      10.08
O       6.46      10.36       7.03
O       7.57       7.93       7.48
O       6.33      10.83       9.71
O       7.43       8.39      10.18
O       4.23      10.65       7.34
O       5.28       8.54       8.68
O       3.00       8.10       9.89
O       3.13       8.22       7.14
O       1.95      10.20       8.55
O       6.05      13.98       1.26
O       5.51      17.29      16.08
O       3.51       4.35      15.57
O       3.81      14.29       1.56
O       1.85       1.44       1.08
O       7.72      17.60      15.70
O       5.67       4.27      17.15
O       6.29       1.17       1.46
O       7.96       4.72      15.92
O       1.66      14.45       0.09
