150

Hf       2.45       0.33       3.24
Hf      14.52       2.47       3.88
Hf       1.01      14.62      14.87
Hf       1.81       3.14       1.10
Hf      13.90      14.12       2.71
Hf      13.44       1.98       0.62
H       5.83      12.60      12.40
H       8.50      13.07      12.27
H       8.95       4.73       5.60
H       6.25       4.97       5.58
H      10.80       6.59      13.51
H      10.62       9.26      13.97
H       4.02       9.67       5.49
H       4.04       6.97       5.75
H      11.89      11.63       7.48
H      12.32      11.43      10.15
H       3.99       4.75      10.47
H       4.24       4.75       7.77
H       2.48       3.16       3.95
H       1.36      12.86       2.02
H       0.49       2.05      13.60
H      12.15       1.26       2.94
H       8.18      13.71       7.72
H       9.85       0.90      11.18
H       7.82       2.32      11.15
H       6.37       0.22       7.68
H      12.92       6.86       9.82
H       0.14      10.31      11.36
H       1.57      10.31       9.34
H      14.35       6.86       7.82
H       9.61      10.63       1.78
H       6.07       8.90      14.51
H       6.20       7.07       1.04
H       9.60       8.61       3.20
C       6.38      11.35      14.13
C       6.61      12.13      12.99
C       7.99      12.38      12.93
C       8.60      11.74      14.01
C       8.85       6.02       3.83
C       8.35       5.35       4.95
C       6.95       5.47       4.93
C       6.60       6.24       3.82
C      12.53       7.18      12.26
C      11.38       7.39      13.04
C      11.29       8.76      13.28
C      12.37       9.39      12.64
C       2.23       9.55       6.77
C       3.37       9.06       6.11
C       3.38       7.67       6.24
C       2.26       7.30       6.99
C      10.62      13.33       8.06
C      11.41      12.19       8.27
C      11.63      12.10       9.65
C      10.98      13.17      10.28
C       5.27       2.97      10.36
C       4.60       4.09       9.87
C       4.73       4.09       8.48
C       5.50       2.98       8.12
C       3.68      13.27       1.15
C       4.32       1.37       4.78
C       3.30       5.03       2.16
C       0.99      12.72       4.79
C      12.03       4.04       2.60
C      13.42       0.10      12.96
C       0.67       3.97       5.78
C      12.54       0.37       5.25
C      14.31      12.25       0.05
C       3.27       1.70      13.50
C      14.48       4.35      14.01
C      11.37      14.22       0.97
C       4.31       1.96      12.55
C       4.93       2.36      11.58
C       5.22       1.98       5.73
C       5.53       2.43       6.83
C      12.26      14.28      12.22
C      11.46      13.78      11.44
C      11.46      -0.03       6.10
C      10.76      14.17       6.95
C       8.08      14.50       8.45
C       9.09      14.69       9.41
C       9.09       0.74      10.41
C       7.94       1.54      10.40
C       6.97       1.39       9.39
C       7.13       0.39       8.44
C       1.63      10.77       6.43
C       1.24      11.75       5.81
C       1.71       6.01       7.02
C       1.28       4.91       6.71
C      13.45      11.33      13.94
C      12.97      10.55      13.13
C      13.37       6.07      12.41
C      14.08       5.22      12.93
C      13.72       7.60       9.73
C      13.90       8.54      10.76
C      -0.01       9.55      10.59
C       0.79       9.55       9.44
C       0.65       8.56       8.46
C      14.52       7.60       8.60
C      11.06       5.07       2.85
C      10.07       5.69       3.23
C       4.23       5.95       2.80
C       5.32       6.26       3.25
C       9.75      12.23      14.64
C      10.65      13.23       0.24
C       5.40      11.67       0.05
C       4.54      12.19       0.75
C       8.86       9.86       1.61
C       7.87      10.03       0.63
C       6.94       9.00       0.43
C       6.93       7.86       1.22
C       7.88       7.72       2.24
C       8.86       8.71       2.40
N       7.62      10.99      14.69
N       7.78       6.63       3.16
N      13.06       8.42      11.90
N       1.58       8.47       7.38
N      10.25      13.86       9.30
N       5.89       2.31       9.29
O       2.97      13.69       0.17
O       3.19       0.96       5.26
O       3.81       3.92       1.76
O       1.96      13.53       4.56
O      -0.11      12.68       4.15
O       2.05       5.23       2.04
O       4.54       1.25       3.53
O       3.68      13.74       2.34
O       0.45       0.59       3.66
O       2.25       1.13       1.37
O       1.92       2.60       3.38
O       1.10      13.79       2.03
O      12.82       3.79       3.58
O      14.42      14.55      13.05
O       0.27       4.47       4.67
O      12.77      14.31       4.53
O      13.83      12.32       1.23
O       3.02       2.66      14.30
O      13.50       3.63      14.42
O      11.64       0.50       0.51
O       0.78       4.36      14.49
O      11.88      13.81       2.08
O       0.56       2.72       5.98
O       2.63       0.59      13.45
O       0.40      12.59      14.54
O      13.02       1.56       5.26
O      11.99       3.41       1.49
O      13.00       1.20      13.48
O      14.38       0.16       0.90
O      14.81       2.91       1.88
O       0.49       1.78      14.53
O      13.08       1.27       2.68
