170

Al      11.46       6.82      13.98
Al       9.90       4.03      13.86
Al       8.28       6.56      13.81
Al       1.45       1.00       0.47
Al       4.64       0.81       0.36
Al       3.39       3.54       0.46
H       7.08       1.48      21.52
H       4.80       4.66       3.73
H       8.58       4.88       7.34
H       5.24       2.41       8.55
H      11.70       9.44      10.90
H       8.91       3.40      20.47
H       1.79       0.09       6.80
H       1.61       0.47       4.34
H       7.71       9.24       7.94
H       7.55       8.50      10.33
H      11.72       2.47       6.02
H       2.94       0.55      21.51
H      12.33       2.23       3.62
H      13.95       5.89       8.06
H      15.15       5.01       6.62
H       7.91       5.33      22.27
H      15.66       4.87       4.19
H      12.11       1.99       8.19
H      11.53       2.39      10.57
H       4.17       4.23      21.40
H       7.56       8.37      22.10
H       7.30      10.42      20.16
H      15.18       5.40      21.40
H      12.52       8.30      21.32
H      11.81       8.09      22.83
H       5.14       5.32       7.31
H       4.39       5.81       5.84
H      11.57       8.21       7.11
H      11.76       7.75       5.50
H      12.57       9.06       4.02
H      11.75       9.63       2.63
H       2.16       3.10      19.72
H      12.71       6.19      20.26
H      11.34       4.76      22.29
H      11.33       2.46      20.61
H      13.79       1.65      21.76
H       5.18       2.29      19.59
H      13.29       7.97      14.90
H      19.06      11.23      27.40
C      11.80       4.44      15.83
C       7.05       4.15      18.20
C       8.24      10.03      20.55
C       7.73       4.47      15.66
C       8.38       8.88      21.60
C       9.63      10.21      24.94
C       9.29       8.75      17.09
C       9.35      10.86      21.27
C       9.49       9.72      22.36
C      10.45      10.17      20.40
C       9.33       9.35      19.64
C       7.28       4.24      17.01
C      10.62       9.04      21.47
C       9.48       8.20      20.73
C       9.57       9.95      23.75
C       9.43       8.13      15.79
C       9.28       9.08      18.26
C      14.33       3.46      20.31
C      14.33       4.74      21.22
C      14.08       3.77      24.92
C      12.31       4.07      17.13
C      13.55       2.66      21.40
C       5.23       4.03      21.19
C      13.56       3.94      22.35
C      12.18       3.11      20.80
C      12.95       3.92      19.67
C      12.18       4.39      21.71
C      11.91       4.54      12.05
C      12.96       5.19      20.61
C      13.85       3.90      23.73
C      12.62       3.95      18.30
C       7.46       4.15      10.50
C       8.23       4.69       9.46
C       6.29       3.59      22.27
C       7.95       4.44       8.12
C       6.87       3.61       7.78
C       6.07       3.07       8.80
C       6.38       3.33      10.14
C       5.72       4.25       5.65
C       7.84       4.46      11.92
C       5.48       4.02       4.29
C       6.98       2.11       4.26
C       7.22       2.34       5.63
C       6.59       3.37       6.34
C       6.24       5.08      20.62
C       6.07       2.96       3.59
C       9.62       8.91      10.74
C      10.82       9.42      10.25
C      10.89       9.89       8.94
C       9.79       9.78       8.06
C       8.57       9.32       8.61
C       9.61       8.22      12.05
C       8.48       8.90       9.93
C      10.73       9.48       5.75
C      10.72       9.81       4.36
C       6.80       4.00      19.59
C       8.75      11.20       4.75
C       8.85      10.98       6.10
C       9.83      10.11       6.63
C       9.69      10.64       3.86
C      12.45       4.31      10.68
C      13.17       5.29       9.95
C      13.45       5.09       8.60
C       5.78       2.96      20.21
C      13.07       3.92       7.93
C      12.40       2.92       8.67
C       7.31       4.65      21.67
C      12.09       3.13      10.00
C      12.60       2.98       5.64
C      12.92       2.87       4.29
C      14.80       4.36       4.61
C      14.50       4.44       5.96
C      13.39       3.77       6.50
C      14.02       3.56       3.76
C       9.68      10.79      26.25
C       6.85       2.52      21.26
C       5.40       3.01      26.19
C       7.86       3.57      20.69
C      14.48       3.36      26.24
C       9.57      11.00       2.44
C       5.56       2.73       2.21
C      14.44       3.34       2.36
C       5.85       3.27      24.85
C       6.05       3.42      23.66
N      11.86       8.68      22.00
N       5.17       5.34       6.29
N      11.67       8.53       6.15
N      11.68       9.21       3.56
Cl      11.79      10.92      19.59
Cl       9.60       5.68       9.83
Cl       8.33       1.33       6.49
Cl       7.85       0.86       3.47
Cl       5.40       2.64      11.38
Cl      12.36      10.65       8.41
Cl      13.72       6.79      10.61
Cl       5.81       6.72      20.21
Cl       9.64       6.53      20.32
O      10.60       7.89      15.41
O       4.69       3.92      26.74
O      15.18       4.18      26.95
O      12.04       5.62      15.46
O      13.90       2.41       1.70
O       2.08       0.06       2.03
O      10.61      10.90       1.66
O       5.74       1.59       1.66
O       4.87       3.67       1.67
O       2.39       4.09       1.91
O       3.18       1.79       0.40
O       8.61       3.63      12.50
O      11.11       3.56      15.19
O       8.58       3.64      15.18
O       7.31       5.53      15.07
O       8.34       7.84      15.17
O      10.72       7.95      12.58
O      12.17       5.63      12.63
O      11.14       3.62      12.53
O       7.44       5.56      12.40
O       8.46       7.88      12.53
O       9.85       5.79      13.89
O      14.13       2.19      26.58
O       8.59      11.09      26.81
O      10.87      11.01      26.71
O       5.68       1.88      26.71
O      12.94       7.76      14.02
O      12.88       0.25       0.51
