100

Zn      -8.60       3.73      16.53
Zn      13.61       6.74       0.35
Zn       6.82       2.53      15.22
Zn      -1.93       8.04       1.90
H      -2.94      13.17       1.70
H      14.71       3.62       0.46
H       3.67       2.67      14.06
H       0.14       6.26       0.36
H      -2.28       9.84       4.54
H       8.16       1.46      12.60
H      10.31       6.60       0.23
H      -6.33       2.62      14.59
H      11.86      11.35       0.31
H      -0.53       5.13       2.92
H       3.43      -1.83       7.52
H       7.82      -3.56       8.89
H       4.00      -3.06      10.01
H       7.24      -2.32       6.40
H       5.80      -0.29       7.76
H      -0.78      12.36       8.65
C      -3.71      12.54       1.27
C      15.42       4.22       1.03
C      12.88       6.57       3.12
C      -8.66       4.63      13.64
C       3.82       1.91      14.82
C      -6.93       0.05      16.54
C      -1.76      10.40       3.77
C       7.80       0.68      13.26
C       3.65       0.26      16.30
C      -6.69       1.85      15.27
C      -0.69      11.90       2.57
C       6.99      -1.15      14.15
C      -3.99       7.39       4.36
C       7.97       4.01      12.61
C      12.88      11.61       0.55
C      -1.40       4.99       2.29
C      -5.11      12.74       1.26
C      -1.94       3.79       1.79
C      13.33       6.58       4.46
C       9.26       4.53      12.33
C       2.89       0.99      15.36
C      -6.06       0.63      15.59
C      -1.27      11.72       3.84
C       7.27      -0.57      12.90
C       4.72      -2.91       9.19
C       6.53      -2.48       7.22
C       4.41      -2.21       7.83
C       6.84      -3.18       8.57
C      -1.31      12.60       4.93
C       6.93      -1.05      11.62
C      -0.69      13.43       8.47
C       5.72      -1.36       7.95
C      -1.00      14.10       7.07
C       6.05      -2.05       9.35
C      -1.28      13.35       5.90
C       6.51      -1.46      10.55
C      12.78       6.01       5.60
C       9.86       4.77      11.10
C      12.27       5.63       6.65
C      10.43       4.91      10.02
C      11.66       5.31       7.79
C      11.07       5.10       8.86
C      -4.76       0.26      15.20
C       1.53       0.81      15.07
C      -3.55       0.20      14.97
C       0.33       0.59      14.91
C      -2.22       0.23      14.84
C      -0.99       0.38      14.82
C      -5.78      13.89       1.68
C      -1.51       2.47       1.97
C      -6.23      15.01       1.92
C      -1.18       1.29       2.07
C      -6.68      16.27       2.07
C      -0.81      -0.00       2.11
Br       0.12      13.45       1.90
Br       6.22      -2.82      14.51
Br      -2.77       7.65       5.74
Br       6.60       3.63      11.41
N      -3.40      11.42       0.60
N      15.32       5.55       1.08
N      13.65       7.35       2.34
N      -9.52       4.18      14.57
N       5.02       1.72      15.40
N      -0.98       8.06       0.09
N      -1.48       9.86       2.57
N       7.80       0.84      14.60
N       4.92       0.70      16.32
N      -7.80       1.99      15.99
N      -0.82      10.80       1.80
N       7.31      -0.32      15.15
N      -3.83       7.86       3.09
N       7.83       3.80      13.95
N      13.92      10.84       0.16
N      -2.14       6.03       1.86
N      11.98       5.66       2.52
N      -7.40       5.07      14.10
O      11.16       5.07       3.21
O      12.11       5.45       1.26
O      -6.58       5.51      13.29
O      -7.17       4.99      15.36
