244

Zn       7.57       9.09      15.53
Zn      27.12      10.90      18.23
Zn       9.07      11.94      15.69
Zn      25.55      11.81      15.60
Zn      18.41       7.32       8.85
Zn      16.88       4.44       8.64
Zn      18.61       5.52       6.19
Zn      20.06       4.59       8.84
Zn      16.21      16.43      22.41
Zn      17.80      15.57      25.08
Zn      16.04      18.24      25.06
Zn      14.60      15.39      24.95
Zn      17.73       5.17      32.00
Zn      14.51       4.97      31.75
Zn      24.95      20.05      31.82
Zn      18.39      17.72       1.94
H      20.86       9.43      11.31
H       5.17       7.04      13.00
H      13.80      14.95      19.57
H       9.80      12.47      21.07
H      14.36       2.81       1.60
H      14.01       2.57       6.52
H      20.31      21.42      29.33
H      20.64      16.81      27.62
H      22.91      11.31      13.62
H      21.43      11.26      12.70
H      22.68       5.08      10.86
H       4.39       5.08      11.91
H      11.78      13.56      16.91
H      13.26      14.36      17.33
H      11.93      13.69      23.73
H      10.55      12.73      23.31
H      16.96       4.56       3.41
H      16.25       4.23       1.86
H      11.29       1.01       4.72
H      11.90       1.51       6.27
H      17.69      20.45      27.03
H       9.72       4.00      27.94
H      23.36      17.85      29.77
H      22.75      16.62      28.71
H      13.63      11.23      12.90
H      12.35       5.17      11.47
H      23.85      12.43      22.28
H      19.49      14.92      18.39
H       7.31       7.32      22.22
H      16.34      20.01      18.39
H      24.14      16.09      12.59
H      10.48      18.04      11.79
H      18.68       9.10       2.15
H      18.35      14.15       6.00
H       4.98       2.26       7.13
H       3.66       3.22       0.98
H      19.19      11.22      28.05
H      13.17       9.34      28.85
H      29.66      16.13      27.73
H      22.30       4.43      29.16
C       7.51       7.94      18.25
C       9.94      12.50      18.47
C      10.20       9.62      14.25
C      27.10      13.95      14.27
C      24.72       9.45      13.99
C      24.49      12.26      18.31
C      15.78       6.78      10.11
C      16.12       3.93       5.82
C      18.50       8.47       6.12
C      21.21       4.12       6.17
C      20.93       6.99      10.38
C      18.49       2.46      10.14
C      18.84      15.09      22.36
C      18.54      17.99      26.64
C      16.13      19.40      22.36
C      13.45      17.71      26.37
C      13.71      14.86      22.17
C      16.25      13.41      26.38
C      16.10       7.13      30.51
C      22.45      20.27      30.24
C      27.55      20.59      30.53
C      18.52      14.77       2.02
C      12.21       1.52       2.31
C       7.09       1.34       1.93
C      23.74       8.87      13.04
C      21.94       7.59      11.28
C      22.61       9.60      12.55
C      23.09       6.87      11.74
C      21.74       8.91      11.69
C      23.95       7.55      12.62
C      10.92      13.15      19.38
C      12.70      14.26      21.26
C      12.05      13.88      18.91
C      11.54      13.57      21.73
C      12.91      14.40      19.88
C      10.69      13.02      20.76
C      12.47       9.72      13.02
C      13.52       6.68      11.35
C      11.30       9.09      13.46
C      14.68       7.31      10.92
C      12.71       7.56      12.12
C      13.28       8.83      12.26
C      23.25      12.82      20.51
C      20.08      14.52      20.16
C      23.40      12.80      19.12
C      19.93      14.55      21.55
C      21.29      13.89      19.78
C      22.04      13.45      20.88
C       7.44       6.59      20.46
C       7.53       2.99      20.15
C       7.50       6.72      19.07
C       7.46       2.86      21.54
C       7.52       4.35      19.76
C       7.45       5.23      20.85
C      26.01      15.86      12.92
C      28.27      18.30      11.49
C      27.09      15.16      13.46
C      27.19      18.99      10.94
C      27.84      17.15      12.20
C      26.45      17.00      12.19
C      15.16       3.30       4.88
C      13.20       2.09       3.25
C      15.30       3.37       3.46
C      13.08       1.99       4.67
C      14.30       2.77       2.69
C      14.07       2.61       5.43
C      18.57       9.82       3.92
C      18.44      13.42       4.23
C      18.50       9.68       5.31
C      18.51      13.55       2.84
C      18.46      12.06       4.62
C      18.55      11.18       3.53
C       3.81       2.94       5.78
C       4.83       2.54       2.33
C       2.64       3.58       5.37
C       6.00       1.90       2.74
C       4.04       2.92       3.44
C       4.61       2.56       4.67
C      19.50      18.60      27.60
C      21.46      19.63      29.35
C      19.36      19.94      28.09
C      21.57      18.28      28.89
C      20.36      20.41      28.95
C      20.58      17.82      28.01
C      17.32      11.48      27.73
C      15.03       9.06      29.15
C      16.25      12.18      27.18
C      16.10       8.36      29.70
C      15.48      10.20      28.43
C      16.87      10.34      28.45
C      30.84      17.63      27.62
C      29.81      20.68      29.28
C      32.01      18.25      27.18
C      28.64      20.06      29.72
C      30.61      19.79      28.51
C      30.04      18.52      28.38
S      11.19       7.43      12.93
S      14.79       8.97      11.45
S      22.06      13.54      18.28
S      21.27      13.80      22.39
S       7.58       5.18      18.25
S       7.39       4.40      22.36
S      28.63      15.90      13.09
S      25.65      18.25      11.30
S      18.41      11.22       6.13
S      18.60      12.02       2.02
S       2.52       3.72       3.63
S       6.13       1.77       4.47
S      14.70      11.45      27.54
S      17.65       9.09      29.34
S      32.12      19.92      27.69
S      28.52      18.40      29.19
N      22.37      10.92      12.85
N      23.41       5.60      11.33
N      12.31      14.12      17.58
N      11.21      13.46      23.06
N      16.38       3.96       2.83
N      12.08       1.29       5.30
N      18.29      20.75      27.80
N      22.57      17.42      29.30
O       7.50      10.92      16.26
O       7.56       7.76      16.98
O       8.98      11.86      19.00
O      10.30      10.84      14.63
O       7.47       9.05      18.87
O       9.23       8.81      14.49
O      10.13      12.62      17.20
O       8.60      13.51      14.61
O      24.51      10.65      14.41
O      25.97      13.42      14.56
O      25.72       8.72      14.34
O      25.49      11.75      18.92
O      24.33      12.36      17.04
O      18.47       5.49       8.14
O      16.75       7.59       9.88
O      15.91       3.79       7.07
O      18.57       7.36       5.50
O      15.68       5.57       9.72
O      18.44       8.64       7.39
O      17.12       4.58       5.32
O      20.26       4.68       5.51
O      21.10       5.77      10.02
O      21.29       4.00       7.44
O      19.93       7.71      10.03
O      17.35       2.86       9.73
O      19.62       3.01       9.91
O      16.17      16.41      24.38
O      17.85      15.61      21.74
O      18.78      16.80      26.26
O      16.09      19.59      23.63
O      18.99      15.00      23.63
O      16.16      18.28      21.75
O      17.54      18.70      26.26
O      14.39      18.54      26.10
O      13.53      14.72      23.44
O      13.37      16.49      26.03
O      14.69      15.47      21.64
O      17.37      13.96      26.13
O      15.08      13.81      26.00
O      16.13       4.13      32.50
O      17.25       6.73      30.91
O      22.24      21.48      30.58
O      26.60      19.77      30.78
O      14.97       6.59      30.73
O      18.95       4.05      30.93
O      23.47      19.57      30.62
O      18.63      14.58       0.76
O      11.19       0.91       2.81
O      18.41      15.88       2.63
O      12.42       1.66       1.05
O       6.98       1.41       0.67
O       8.06       0.84       2.60
O      12.78      11.01      13.31
O      13.21       5.39      11.07
O      24.17      12.30      21.36
O      19.16      15.04      19.30
O       7.37       7.65      21.30
O      16.30      19.68      19.31
O      24.72      15.47      13.07
O      29.56      18.68      11.34
O      18.64       8.76       3.07
O      18.36      14.48       5.08
O       4.12       2.71       7.08
O       4.52       2.77       1.03
O      18.62      11.86      27.58
O      13.74       8.69      29.30
O      30.53      16.34      27.34
O      21.43       4.22      29.56
