118

Zn      -0.13       2.06       0.72
Zn      -9.38      18.41       0.82
Zn      -0.06      13.08      16.32
Zn       9.17      18.39       0.74
Zn      10.74       4.78       8.55
Zn       9.16       7.57       8.55
Zn      -9.39       7.56       8.53
Zn     -10.96       6.62      11.15
H       5.76       1.52       5.53
H       7.49       2.55       7.01
H       6.57       6.43       5.42
H       4.86       5.41       3.91
H      11.71      -0.83      12.07
H      11.69       1.21      10.62
H     -11.84       3.48      13.80
H     -11.86       1.44      15.26
H      14.75       1.78       4.18
H      13.02       2.85       5.64
H      -6.06       6.10       6.47
H      -4.31       5.04       5.02
H       4.14      10.17      12.10
H       5.87       9.17      10.60
H     -13.36       8.40      13.99
H     -15.08       9.40      15.51
H       8.60      12.97       4.72
H       8.62      10.93       6.19
H      -8.85      10.93       6.16
H      -8.85      12.97       4.70
H      -6.38       8.84      15.40
H      -8.10       7.77      13.93
H      -6.40       9.71      10.50
H      -4.67      10.79      11.95
C       2.40       1.71       2.20
C       3.39       2.32       3.05
C       4.22       2.82       3.78
C       5.20       3.40       4.63
C       5.95       2.59       5.51
C       6.91       3.16       6.33
C       7.13       4.55       6.30
C       6.38       5.36       5.43
C       5.43       4.79       4.60
C       8.17       5.16       7.19
C     -10.97      -3.12      16.15
C     -10.96      -1.96      15.30
C     -10.96      -0.97      14.58
C     -10.96       0.18      13.76
C      11.31       0.11      12.44
C      11.30       1.24      11.63
C     -10.96       2.46      12.13
C     -11.46       2.53      13.44
C     -11.47       1.40      14.24
C     -10.96       3.67      11.26
C      19.07       1.66       2.15
C      18.05       2.24       2.98
C      17.20       2.75       3.69
C      16.21       3.35       4.51
C      14.95       2.73       4.68
C      13.99       3.32       5.49
C      14.26       4.53       6.14
C      -6.25       5.16       5.96
C      -5.29       4.57       5.16
C      13.23       5.16       7.02
C     -19.28      11.56      16.29
C     -18.27      10.94      15.47
C     -17.43      10.43      14.75
C     -16.46       9.85      13.90
C       5.07       9.78      12.51
C       6.03       9.22      11.67
C     -14.53       8.73      12.20
C     -14.30       8.79      13.59
C     -15.25       9.35      14.43
C     -13.49       8.13      11.31
C     -11.01      16.40       2.24
C     -11.02      15.23       3.08
C     -11.01      14.24       3.79
C     -11.01      13.10       4.62
C       9.54      12.52       5.04
C       9.55      11.39       5.85
C     -11.00      10.82       6.25
C      -9.78      11.39       5.83
C      -9.79      12.52       5.03
C     -10.99       9.60       7.12
C      -2.61      11.61      16.17
C      -3.60      11.00      15.32
C      -4.44      10.49      14.60
C      -5.41       9.88      13.77
C      -6.39       9.03      14.33
C      -7.35       8.44      13.51
C      -7.35       8.68      12.13
C      -6.38       9.53      11.57
C      -5.42      10.13      12.38
C      -8.39       8.05      11.26
O      -0.11       0.19       0.11
O       2.51       0.46       2.00
O       1.50       2.49       1.74
O       8.14       6.43       7.32
O       9.00       4.36       7.74
O      10.93      -4.25      15.57
O     -11.11      -2.90      17.40
O     -11.19       4.79      11.84
O      11.03       3.51      10.02
O      18.88       0.45       1.78
O      -1.69       2.41       1.87
O      -8.26       6.32       7.49
O      12.16       4.49       7.23
O       1.49      12.07      15.66
O     -19.09      11.55      17.55
O     -12.44       7.68      11.87
O       8.02       8.12      10.06
O       9.61      16.87       1.91
O      -9.86      16.84       1.90
O      -9.85       9.09       7.39
O       9.63       9.18       7.52
O      -2.75      11.43      17.42
O      -1.69      12.27      15.58
O      -8.31       8.28      10.01
O      -9.28       7.35      11.85
O     -10.99       6.64       9.19
