84

Zn       0.12      12.01       6.37
Zn       4.61      10.43       5.31
Zn       2.37      10.30       7.21
Zn       6.61      -0.61      11.68
Zn       2.12       1.10      12.52
Zn       4.37      -0.48      13.58
H       4.91      14.87       8.75
H       2.66      11.05       1.64
H       0.42       6.81       8.51
H       1.82      -4.10      10.39
H       4.07       3.96      10.15
H       6.31       0.14      17.25
H       0.20      13.54       9.52
H       4.69      12.38       2.41
H       2.44       6.80       6.97
H       6.53      -4.11      11.93
H       2.04       2.63       9.38
H       4.29       1.47      16.49
H       1.12      15.54      10.67
H       5.60      12.38       0.11
H       3.36       4.81       8.12
H       5.61      -6.10      10.78
H       1.13       4.63       8.22
H       3.37       1.47      18.79
C       2.03      13.04       8.51
C       6.51      11.76       3.35
C       4.27       7.93       7.04
C       4.70      -2.98      11.86
C       0.22       2.13      10.38
C       2.46       0.85      15.55
C       4.34      12.69       7.48
C       2.10      11.04       4.17
C       6.59       9.00       7.25
C       2.39      -1.91      11.64
C       4.63       1.78      11.42
C       0.15       0.13      14.73
C       3.39      13.43       8.32
C       1.15      11.40       3.11
C       5.63       7.90       7.47
C       3.34      -3.01      11.42
C       5.59       2.52      10.58
C       1.10       0.49      15.79
C       3.88      14.59       8.96
C       1.63      11.37       1.78
C       6.12       6.77       8.16
C       2.86      -4.14      10.74
C       5.10       3.68       9.94
C       0.61       0.46      17.11
C       3.09      15.37       9.80
C       0.85      11.71       0.69
C       5.33       5.65       8.41
C       3.64      -5.26      10.48
C       5.88       4.46       9.09
C       1.40       0.81      18.21
C       1.24      13.85       9.36
C       5.72      12.09       2.22
C       3.48       6.79       7.31
C       5.49      -4.12      11.58
C       1.01       2.94       9.53
C       3.25       1.18      16.67
C       1.75      14.97       9.99
C       6.24      12.08       0.94
C       3.99       5.68       7.97
C       4.98      -5.22      10.93
C       0.49       4.06       8.91
C       2.74       1.17      17.96
O       1.45      11.96       7.95
O       5.93      11.81       4.56
O       3.69       8.95       6.38
O       5.28      -1.96      12.51
O       0.80       1.05      10.95
O       3.04       0.90      14.33
O       5.48      13.21       7.20
O       3.24      10.54       3.86
O       0.99       8.98       7.84
O       1.25      -1.93      11.05
O       3.50       2.30      11.70
O       5.74      -0.37      15.04
O       4.05      11.50       7.06
O       1.80      11.27       5.40
O       6.29       9.95       6.43
O       2.68      -0.96      12.46
O       4.93       0.59      11.84
O       0.44       0.36      13.49
