116

Al       3.97      35.78      12.39
Al       3.97      21.47       4.13
H       2.05      13.64       6.88
H       2.05      14.98       9.65
H       2.05      27.76       9.54
H       2.05      29.49       6.99
H       2.05      37.31      20.77
H       2.05      34.25      20.55
H       3.44      18.27       3.78
H       3.77      15.27       4.44
H       0.53      19.87       6.95
H       0.17      17.58       8.95
H       0.17      11.04       7.57
H       0.53       8.76       9.58
H       3.77      13.36      12.09
H       3.44      10.35      12.74
H       3.44      22.77       7.07
H       3.77      24.83       9.35
H       0.53      24.71       4.11
H       0.17      27.59       5.09
H       0.17      29.66      11.44
H       0.53      32.54      12.42
H       3.77      32.42       7.18
H       3.44       5.86       9.45
H       3.44      23.37       1.54
H       3.77      38.62      23.40
H       0.53      19.83       1.34
H       0.17      33.55      23.14
H       0.17      38.01      18.17
H       0.53       8.80      15.19
H       3.77      32.94      17.92
H       3.44      33.88      14.99
C       1.98      35.68      14.48
C       1.98       9.01      11.44
C       1.98      34.02      11.26
C       1.98      19.61       5.09
C       1.98      23.23       5.26
C       1.98      21.57       2.04
C       1.99      18.33       5.75
C       1.29      18.13       6.96
C       1.33      16.90       7.61
C       1.99      15.79       7.03
C       2.66      15.98       5.80
C       2.70      17.23       5.19
C       1.98      14.45       7.60
C       1.98      14.17       8.93
C       2.66      12.64      10.73
C       1.99      12.84       9.49
C       1.33      11.73       8.91
C       1.29      10.50       9.56
C       1.99      10.29      10.78
C       2.70      11.39      11.34
C       1.99      24.43       6.04
C       1.29      25.59       5.61
C       1.33      26.77       6.35
C       1.99      26.82       7.60
C       2.66      25.65       8.05
C       2.70      24.50       7.27
C       1.98      27.98       8.47
C       1.98      29.27       8.05
C       2.66      31.59       8.48
C       1.99      30.43       8.92
C       1.33      30.48      10.18
C       1.29      31.66      10.92
C       1.99      32.81      10.49
C       2.70      32.75       9.26
C       1.99      21.64       0.61
C       1.29      35.00      24.61
C       1.33      35.05      23.22
C       1.99      36.11      22.55
C       2.66      37.08      23.34
C       2.70      36.98      24.72
C       1.98      36.28      21.11
C       1.98      35.28      20.20
C       2.66      34.48      17.98
C       1.99      35.45      18.77
C       1.33      36.51      18.10
C       1.29      36.56      16.70
C       1.99      35.61      15.92
C       2.70      34.58      16.59
O       2.90      34.92      11.05
O       2.90      35.04      13.81
O       2.90       8.75      12.33
O       1.06      34.20      12.17
O       1.06       8.15      11.14
O       1.06      36.37      13.88
O       2.90      22.20       2.72
O       2.90      19.88       4.20
O       2.90      22.32       5.48
O       1.06      20.87       2.64
O       1.06      23.05       4.36
O       1.06      20.48       5.39
O       3.40      17.31       4.02
O       3.31      14.93       5.23
O       0.59      19.12       7.59
O       0.67      16.76       8.80
O       0.67      11.87       7.72
O       0.59       9.51       8.93
O       3.31      13.70      11.30
O       3.40      11.31      12.51
O       3.40      23.45       7.79
O       3.31      25.69       9.25
O       0.59      25.64       4.44
O       0.67      27.87       5.88
O       0.67      29.38      10.65
O       0.59      31.61      12.09
O       3.31      31.56       7.28
O       3.40       5.17       8.74
O       3.40      23.65       0.59
O       3.31      38.10      22.71
O       0.59      19.65       0.36
O       0.67      34.09      22.50
O       0.67      37.47      18.81
O       0.59      37.60      16.16
O       3.31      33.46      18.61
O       3.40      33.60      15.94
