72

Zn       5.31       5.66       8.46
Zn       5.29       8.56       8.63
H       3.59      10.59       7.52
H       3.32      13.11       7.44
H       4.00       0.94       6.63
H       6.83       0.85       9.89
H       4.70       9.31       4.44
H       4.78       9.56       1.94
H       4.26       9.02      15.22
H       4.81       4.76      15.28
H       9.85       9.33       8.34
H      -0.06       3.67       7.08
C       5.47       7.34       5.97
C       2.71       7.17       8.49
C       5.00       6.89      11.07
C       7.87       7.26       8.58
C       4.24      11.26       8.08
C       4.10      12.63       8.04
C       4.98      13.43       8.79
C       5.97      12.81       9.57
C       6.05      11.39       9.55
C       4.63       1.44       7.36
C       5.40       0.71       8.27
C       6.21       1.39       9.18
C       6.21       2.78       9.15
C       4.71       2.84       7.40
C       5.64       7.40       4.47
C       5.13       8.54       3.81
C       5.18       8.68       2.44
C       5.74       7.66       1.65
C       6.27       6.51       2.28
C       6.24       6.38       3.69
C       4.43       8.09      14.69
C       4.58       6.90      15.41
C       4.73       5.69      14.72
C       4.79       5.68      13.34
C       4.74       6.88      12.56
C       4.50       8.07      13.29
C       0.35       6.06       8.77
C      10.20       8.31       8.49
C       1.23       7.13       8.61
C       9.34       7.24       8.62
C      -1.14       7.88       8.57
C      -1.01       6.49       8.75
S       0.40       8.64       8.48
S      10.14       5.72       8.86
S       0.71       4.34       8.95
N       5.21      10.66       8.82
N       4.98      14.84       8.81
N       5.33      -0.70       8.20
N       5.46       3.52       8.29
N       5.77       7.66       0.25
N       4.57       7.00      16.82
Cl       7.23      10.61      10.48
Cl       7.05      13.72      10.52
Cl       3.84       3.72       6.23
Cl       7.25       3.59      10.24
Cl       6.97       4.98       4.37
Cl       6.98       5.28       1.32
Cl       4.19       9.59      12.52
Cl       4.93       4.11      12.64
O       5.70       6.23       6.54
O       5.10       8.42       6.55
O       3.25       8.29       8.80
O       3.30       6.13       8.08
O       5.49       7.96      10.59
O       4.74       5.84      10.42
O       7.29       6.14       8.82
O       7.30       8.37       8.32
O       0.84       3.84       7.41
O       1.98       4.09       9.55
O      -0.50       3.74       9.48
