138

Al      11.15       6.61      14.44
Al       9.52       3.83      14.40
Al       7.94       6.37      14.41
Al       1.31       0.86       0.09
Al       5.05       1.05      28.75
Al       3.56       3.66      28.74
H       8.37       2.38      22.44
H       7.75       7.47       8.17
H       6.52       1.39      20.55
H       7.83       7.86       5.71
H       4.75       0.03       6.31
H      10.58      10.67       8.77
H       1.83       2.21       6.18
H      11.24       5.26       5.89
H      11.02       5.26       8.36
H       8.54       4.82      20.97
H       6.43       5.88      22.51
H      10.68      10.76      20.00
H       4.57       4.89      20.63
H       4.39       2.47      22.09
H       4.94       0.11      22.46
H       2.55       1.35       8.16
H      14.55       4.21      20.02
H      15.00       4.17      22.47
H      10.85       3.30      23.23
H      10.40       3.34      20.77
H       4.61       2.79       8.78
H       4.21       2.59       6.34
H       8.00       4.54       5.58
H      13.12       7.61      13.66
H      18.24      10.94      28.10
C      11.44       4.28      16.34
C       6.75       3.85      18.76
C       9.16       8.54      17.61
C       7.38       4.26      16.22
C       8.58       8.33      21.07
C       8.68       8.52      22.44
C      10.23      10.34      22.06
C      10.12      10.14      20.69
C       9.30       9.13      20.17
C       9.51       9.53      22.97
C       9.57       9.76      24.36
C       6.93       3.97      17.56
C       9.21       8.85      18.79
C       9.61      10.01      25.55
C      11.91       3.96      17.67
C       9.21       7.95      16.30
C      13.75       4.01      20.73
C      14.00       3.99      22.09
C      11.65       3.50      22.52
C      11.40       3.52      21.15
C      12.45       3.78      20.24
C      12.96       3.73      23.01
C       5.31       2.99      21.83
C      13.23       3.66      24.39
C      12.17       3.85      18.85
C      13.51       3.56      25.57
C       6.99       4.03      11.15
C      11.53       4.27      12.55
C       5.34       3.16       8.07
C       5.12       3.05       6.70
C       7.24       4.15       6.26
C       7.43       4.25       7.62
C       6.51       3.77       8.57
C       6.35       3.54      22.91
C       6.07       3.54       5.78
C       5.83       3.42       4.38
C       6.76       3.91       9.96
C       5.60       3.31       3.19
C       9.12       8.51      11.21
C       7.44       4.30      12.50
C       8.38       8.26       7.76
C       8.43       8.47       6.39
C      10.04      10.27       6.73
C       9.98      10.06       8.10
C       5.41       4.33      21.04
C       9.15       9.05       8.63
C       9.26       9.48       5.85
C       9.29       9.72       4.46
C       9.12       8.79      10.02
C       9.28       9.96       3.26
C      12.03       3.95      11.25
C       9.21       7.94      12.52
C      13.48       2.91       8.05
C      13.57       2.89       6.66
C      11.86       4.60       6.49
C       6.58       3.73      20.16
C      11.74       4.61       7.88
C      12.55       3.77       8.68
C      12.78       3.74       5.86
C      12.94       3.69       4.46
C      12.35       3.81      10.08
C      13.14       3.58       3.26
C       9.57      10.57      26.88
C       6.49       2.39      21.00
C       5.64       3.08      26.87
C      14.00       3.28      26.89
C       6.44       4.89      22.07
C       9.21      10.48       1.93
C       5.13       3.07       1.85
C      13.55       3.21       1.93
C       7.53       2.94      22.03
C       6.04       3.33      25.52
C       1.95       2.05       8.81
C       7.62       4.29      21.24
C       6.20       3.43      24.31
O      10.36       7.73      15.83
O       4.92       3.96      27.45
O      14.85       4.13      27.37
O      11.74       5.42      15.90
O      13.25       2.04       1.56
O       8.06      10.71       1.45
O      10.33      10.73       1.35
O       5.50       1.99       1.28
O       4.31       3.92       1.36
O      14.23       4.07       1.26
O       2.98       1.81       0.01
O       8.25       3.47      13.02
O      10.72       3.39      15.76
O       8.19       3.42      15.68
O       6.99       5.36      15.69
O       8.08       7.63      15.77
O      10.36       7.68      12.96
O      11.82       5.40      13.02
O      10.78       3.38      13.11
O       2.10       2.06      10.02
O       7.05       5.39      13.03
O       8.09       7.70      13.12
O       9.52       5.59      14.41
O      13.61       2.21      27.45
O       8.43      10.88      27.33
O      10.70      10.75      27.46
O       5.98       1.95      27.38
O      12.62       7.54      14.49
O      18.18      11.00       0.18
F       8.57       4.86       8.07
F       7.77       7.35      20.61
F       7.98       7.72      23.28
