112

Cu       4.62       7.57       0.87
Cu       4.62       7.57      17.37
Cu       0.86       0.00       0.87
Cu       0.85      -0.00      17.37
H      -1.36      -2.13      14.23
H      -0.46       8.88      10.39
H       9.60       2.13       4.01
H      -0.46       6.26       7.85
H      -4.13      -5.43      14.23
H       5.94      -1.31      10.39
H       6.83       5.43       4.01
H       5.94       1.31       7.85
H       6.83       9.70       4.01
H       5.94      -1.31       7.85
H      -4.13       5.44      14.23
H       5.94       1.31      10.39
H       9.60      13.00       4.01
H      -0.46       8.88       7.85
H      -1.35       2.13      14.23
H      -0.46       6.26      10.39
H      -2.74      -3.78      17.97
H       8.22       3.78       0.27
H       8.21      11.35       0.28
H      -2.74       3.78      17.97
C      -1.23      -1.79      16.92
C      -1.99      -2.83      16.18
C      -1.97      -2.85      14.78
C      -1.91      -4.73      12.01
C      -1.91      10.44      10.53
C      -1.09       9.56       9.82
C       9.73       1.79       1.32
C       8.96       2.83       2.07
C       8.99       2.85       3.46
C       9.05       4.72       6.23
C      -1.91       4.70       7.72
C      -1.10       5.58       8.42
C      -4.26      -5.77      16.92
C      -3.49      -4.73      16.18
C      -3.52      -4.71      14.78
C      -3.58      -2.84      12.01
C       7.38      -2.87      10.53
C       6.57      -1.99       9.82
C       6.70       5.77       1.32
C       7.47       4.73       2.07
C       7.44       4.71       3.46
C       7.38       2.84       6.23
C       7.38       2.87       7.71
C       6.57       1.99       8.42
C       6.70       9.36       1.32
C       7.47      10.40       2.07
C       7.44      10.42       3.47
C       7.38      12.29       6.23
C       7.38      -2.87       7.71
C       6.57      -1.99       8.42
C      -4.26       5.77      16.92
C      -3.49       4.73      16.18
C      -3.52       4.71      14.78
C      -3.58       2.84      12.01
C       7.38       2.87      10.53
C       6.57       1.99       9.82
C       9.73      13.34       1.32
C       8.97      12.30       2.07
C       8.99      12.28       3.47
C       9.05      10.41       6.23
C      -1.91      10.44       7.71
C      -1.09       9.56       8.42
C      -1.23       1.80      16.92
C      -1.99       2.84      16.18
C      -1.96       2.85      14.78
C      -1.90       4.72      12.01
C      -1.91       4.70      10.53
C      -1.10       5.58       9.82
C      -2.74      -3.78      14.09
C      -2.74      -3.78      16.88
C      -2.74      -3.78       9.83
C       8.22       3.78       4.15
C       8.22       3.78       1.36
C       8.21       3.78       8.41
C       8.22      11.35       4.15
C       8.22      11.35       1.36
C       8.22      11.35       8.41
C      -2.74       3.78      14.10
C      -2.74       3.78      16.88
C      -2.74       3.78       9.83
N      -2.74      -3.78      12.65
N       8.22       3.78       5.59
N       8.22      11.35       5.59
N      -2.74       3.78      12.65
O      -1.72      -1.41      18.04
O      -0.15      -1.37      16.38
O      -1.22       9.62      12.66
O       9.24       1.41       0.20
O      -0.15       1.37       1.86
O      -1.22       5.51       5.58
O      -3.77      -6.15      18.04
O       5.62      -6.20      16.38
O       6.69      -2.06      12.66
O       7.19       6.15       0.20
O       5.62       6.20       1.86
O       6.70       2.06       5.58
O       7.19       8.98       0.20
O       5.63       8.93       1.86
O       6.70      -2.06       5.58
O      -3.77       6.16      18.04
O       5.62       6.20      16.38
O       6.69       2.06      12.66
O       9.24      13.72       0.20
O      -0.14      13.77       1.86
O      -1.22       9.63       5.58
O      -1.72       1.41      18.04
O      -0.15       1.37      16.38
O      -1.22       5.51      12.66
