192

Cu       2.23      -1.96      27.18
Cu       3.24      -0.94      29.95
Cu       2.10       1.15      27.86
Cu      25.95      10.41      11.17
Cu      24.51       9.31      13.73
Cu      27.18       7.87      12.55
Cu      16.46      25.24      21.31
Cu      17.43      24.20      18.51
Cu      16.22      22.15      20.61
Cu      12.05      16.60       4.82
Cu      10.48      17.79       2.37
Cu      13.08      19.31       3.62
H       4.13      24.42      26.91
H       4.92      -3.43      30.96
H      28.31       2.18      25.51
H      28.06      -2.12      24.96
H       3.53       4.88       0.13
H       2.93       3.89      29.33
H      23.93      12.66      10.25
H      21.92      11.26      13.84
H       1.28       7.03      10.33
H      27.87      10.75       8.69
H      23.98       7.49      16.26
H      27.65       5.69      14.81
H      18.09      -1.18      21.56
H      19.15      26.67      17.50
H      14.32      21.16      22.97
H      14.24      25.46      23.59
H      17.89      22.27      16.02
H      16.91      19.39      19.13
H      10.16      14.24       5.67
H       7.92      15.80       2.30
H      15.15      20.20       5.96
H      14.00      16.23       7.27
H      10.17      15.76      32.19
H      13.48      21.56       1.43
H       7.29      23.89      27.52
H      20.93      14.22      13.49
H      21.20      -0.60      20.97
H       6.92      12.83       2.59
H      27.29       1.92      22.63
H      16.72      16.53       8.47
H       2.64      10.61       7.65
H      13.37      21.40      25.85
H       3.03       7.12       1.77
H      17.18      20.00      14.40
H       9.90      18.74      31.37
H      23.80       4.52      17.10
C      19.03      15.89      11.84
C      17.62      17.52      11.16
C      18.29      17.44      13.31
C       8.98      21.76      28.71
C      10.79      21.93      27.36
C      10.79      20.46      29.07
C       5.09      11.15       4.30
C       3.65       9.56       5.01
C       4.25       9.64       2.83
C      22.89       1.53      19.78
C      24.69       2.86      19.44
C      24.68       1.41      21.17
C       4.21      24.92      27.87
C       4.97      24.58      28.99
C       4.53      -3.54      29.96
C       0.33       1.10      25.54
C      27.78       0.11      24.81
C      28.31      -1.11      25.26
C       3.51       1.51      31.52
C       3.50       2.88      31.25
C       3.07       3.00      29.93
C      23.63      12.16      11.17
C      22.49      12.35      11.95
C      22.60      11.45      13.02
C       0.76       7.97      10.13
C       0.90       8.85       9.05
C      28.10       9.88       9.29
C      24.87       7.20      15.71
C      25.81       6.20      15.98
C      26.76       6.28      14.96
C      18.16      -1.67      20.59
C      18.92      -1.35      19.47
C      18.77      26.78      18.51
C      14.48      22.23      22.96
C      13.88      23.24      23.72
C      14.44      24.44      23.27
C      17.59      21.75      16.93
C      17.51      20.38      17.20
C      17.09      20.27      18.53
C       9.80      14.78       4.80
C       8.61      14.62       4.09
C       8.65      15.58       3.07
C      14.73      19.21       6.07
C      14.93      18.26       7.09
C      14.15      17.16       6.75
C      10.77      19.97       0.46
C      11.67      21.01       0.22
C      12.62      20.94       1.25
C       7.67      22.29      29.06
C       7.01      23.32      28.40
C      19.93      14.78      11.55
C      20.77      14.11      12.42
C      21.60       0.97      19.41
C      20.94      -0.05      20.08
C       6.04      12.22       4.57
C       6.84      12.90       3.66
C      25.35       0.80      22.31
C      26.57       1.15      22.88
C      16.82      18.10      10.08
C      16.47      17.50       8.89
C       2.85       8.99       6.10
C       2.45       9.62       7.26
C      11.48      22.56      26.24
C      12.67      22.20      25.64
C       4.11       9.09       1.49
C       3.51       7.88       1.16
C      18.22      18.02      14.65
C      17.67      19.24      14.99
C      11.46      19.46      29.91
C      10.90      18.75      30.96
C      25.35       3.86      18.61
C      24.79       4.55      17.54
N      18.31      16.41      10.83
N      17.60      18.10      12.36
N      19.04      16.34      13.11
N       9.56      22.36      27.65
N      11.47      20.98      28.03
N       9.54      20.79      29.45
N       4.38      10.65       5.32
N       3.57       8.99       3.80
N       5.03      10.71       3.02
N      23.45       2.50      19.04
N      25.35       2.36      20.49
N      23.45       0.96      20.87
N       3.65      -2.66      29.44
N       3.36      -3.05      28.15
N       1.13      -0.85      26.20
N       1.21       0.51      26.37
N       2.84       1.77      29.44
N       3.11       0.84      30.42
N      23.75      10.76      12.87
N      24.38      11.20      11.74
N      27.46       9.63      10.45
N      27.93       8.45      10.97
N      26.41       7.28      14.13
N      25.25       7.85      14.58
N      17.88      25.91      19.03
N      17.60      26.30      20.32
N      15.34      24.16      22.30
N      15.37      22.80      22.11
N      16.92      21.52      19.02
N      17.22      22.43      18.04
N       9.80      16.27       3.17
N      10.51      15.77       4.24
N      13.51      17.43       5.59
N      13.86      18.69       5.18
N      12.29      19.91       2.06
N      11.16      19.31       1.57
N       5.86      22.68      30.22
N       6.93      21.94      30.16
N       5.90      23.54      29.14
N      21.06      13.38      10.32
N      20.15      14.30      10.28
N      21.46      13.25      11.64
N      19.83       0.53      18.21
N      20.88       1.29      18.28
N      19.85      -0.31      19.32
N       7.28      13.55       5.77
N       6.35      12.65       5.84
N       7.59      13.72       4.43
N      25.68      -0.64      23.92
N      24.86      -0.30      22.97
N      26.75       0.24      23.87
N      15.58      19.56       9.03
N      16.26      19.35      10.12
N      15.69      18.41       8.26
N       1.66       7.51       7.18
N       2.35       7.71       6.10
N       1.70       8.69       7.91
N      11.82      24.04      24.66
N      11.00      23.69      25.61
N      12.86      23.12      24.67
N       4.51       5.04      31.62
N       4.53       9.69       0.34
N       3.88       3.91      32.11
N      18.45      18.18      16.82
N      18.68      17.41      15.80
N      17.83      19.33      16.33
N      13.09      18.28      30.74
N      12.79      19.14      29.82
N      11.93      18.02      31.45
N      26.96       5.09      17.80
N      26.67       4.23      18.72
N      25.81       5.30      17.06
