60

Zn       6.31       5.75       8.89
Zn       3.50       5.80       8.79
H       6.99       5.35       2.08
H       2.75       5.49      15.58
H       6.88       4.15      15.39
H       2.80       4.24       2.37
H       1.32       6.10       6.77
H       8.50       5.39      10.92
H       1.41       5.43      10.87
H       8.40       6.06       6.81
C       4.85       3.16       8.75
C       4.94       8.37       8.90
C       4.85       4.56       0.64
C       4.86       4.76      17.09
C       4.24       0.97       9.85
C       5.52      10.56       7.78
C       4.33      10.60       9.89
C       5.42       0.92       7.73
C       4.86       5.52      11.39
C       4.94       5.68       6.28
C       4.94       9.87       8.86
C       4.82       1.65       8.77
C       6.08       5.21       2.65
C       3.66       5.26      15.02
C       5.98       4.53      14.92
C       3.73       4.60       2.82
C       6.07       5.49       4.01
C       3.69       5.45      13.65
C       5.95       4.74      13.55
C       3.78       4.91       4.16
C       4.93       5.38       4.82
C       4.83       5.23      12.86
C       0.75       5.95       7.69
C       9.06       5.55      10.00
C       0.80       5.57       9.97
C       9.01       5.93       7.71
C       4.89       4.77       2.04
C       4.82       4.82      15.68
C       3.63       1.71      10.91
C       6.13       9.84       6.70
C       3.76       9.94      11.02
C       5.97       1.61       6.61
N       8.36       5.73       8.87
N       1.45       5.78       8.82
N       3.12       2.31      11.77
N       6.62       9.29       5.80
N       3.32       9.45      11.98
N       6.39       2.19       5.69
O       5.95       3.68       9.08
O       3.82       7.82       9.12
O       6.06       7.81       8.71
O       3.77       3.73       8.43
O       5.98       5.88      10.89
O       3.86       6.09       6.81
O       6.03       5.48       6.90
O       3.78       5.37      10.75
F       7.23       5.94       4.54
F       2.55       5.92      13.07
F       7.08       4.43      12.86
F       2.63       4.71       4.87
