180

Al       7.98       4.73      14.08
Al       9.75       7.40      13.94
Al      11.21       4.80      13.95
Al      17.38      10.19       0.44
Al      14.19      10.30       0.46
Al      15.49       7.59       0.42
H      11.50       9.48      21.96
H      15.42      11.09      21.73
H       6.34       5.28      21.77
H       4.92       7.04      20.04
H       8.74       5.95      20.43
H       9.16       8.07      22.27
H       7.77       9.81      20.53
H      17.94       9.13      21.89
H      14.24      10.00       4.21
H      12.45       5.82       6.18
H      12.67       6.02       3.71
H      11.58       3.87      10.18
H      10.84       6.92      20.92
H      11.69       1.66       6.22
H      11.54       0.90       3.85
H       7.75       1.32       8.34
H       5.34       6.44      11.16
H      17.66       9.77       4.22
H       8.29       7.92       7.46
H      14.71       6.22      20.18
H      12.59       2.12      21.84
H       6.90       2.14      20.77
H       7.53       2.41      19.25
H      11.17      10.25      10.22
H      11.14       9.35      11.71
H      13.30      11.04      19.84
H      13.44       9.97      18.55
H      14.38       9.87       7.81
H      14.70      10.78       6.40
H       6.94       1.38       2.78
H       6.24       2.10       4.24
H       5.56       9.67       7.83
H      17.68      10.62       6.52
H       3.83       6.44       7.85
H       3.63       6.04       9.48
H      12.95       4.70      22.13
H      12.67       5.63      23.50
H      18.38      10.66      20.35
H      17.45      10.90      18.99
H       6.21       3.35      13.43
H       6.92      10.78       1.17
C       7.79       7.12      15.84
C      12.23       7.12      17.22
C      14.34       8.35      21.13
C      13.39       8.14      22.39
C      14.00       6.94      20.57
C      12.80       7.56      19.75
C      13.06       6.70      21.80
C      11.84       7.34      21.00
C      13.68       8.35      23.76
C      12.50       7.30      18.40
C      10.97       1.03      20.48
C      11.74       6.83      15.91
C      11.55       2.08      21.49
C      10.38       1.36      25.01
C      10.09       2.65      17.13
C       9.70       0.82      21.42
C      10.30       1.87      22.44
C       8.94       1.96      20.66
C      10.19       2.17      19.71
C       9.54       3.02      21.67
C      10.79       3.21      20.74
C      10.35       1.64      23.83
C       9.96       3.25      15.84
C      10.14       2.39      18.32
C       5.86       7.26      20.55
C       6.65       6.29      21.49
C       6.36       7.63      25.08
C       7.47       7.52      17.18
C       6.10       8.44      21.54
C       6.88       7.47      22.51
C       7.44       8.81      20.82
C       7.20       7.64      19.79
C       8.22       7.84      21.76
C       7.81       6.94      12.00
C       7.98       6.66      20.77
C       6.64       7.49      23.91
C       7.35       7.63      18.39
C      12.52       7.27      10.88
C      12.18       8.49      10.21
C      12.47       8.59       8.83
C      13.08       7.62       8.06
C      13.46       6.45       8.76
C      13.21       6.29      10.11
C      13.88       8.93       6.04
C      11.98       6.94      12.20
C      13.86       9.08       4.65
C      12.97       6.83       4.36
C      12.88       6.72       5.74
C      13.29       7.76       6.60
C      13.42       8.05       3.81
C       9.72       2.89      10.64
C      10.74       3.32       9.78
C      10.66       3.06       8.42
C       9.60       2.34       7.84
C       8.59       1.89       8.72
C       9.75       3.36      12.05
C       8.65       2.17      10.07
C       8.37       2.03       5.68
C       8.24       1.65       4.32
C      10.65       1.23       4.39
C      10.73       1.63       5.70
C       9.56       2.03       6.40
C       9.43       1.19       3.69
C       7.29       7.13      10.62
C       5.96       6.79      10.34
C       5.43       6.89       9.04
C      13.13       9.01      20.32
C       6.28       7.30       7.99
C       7.62       7.62       8.27
C       8.10       7.54       9.56
C       5.52       8.69       6.04
C       5.23       8.79       4.68
C       5.36       6.40       4.41
C       5.71       6.30       5.75
C       5.81       7.42       6.59
C       5.14       7.67       3.85
C      10.40       0.76      26.32
C      12.20       8.75      21.55
C      14.39       8.59      26.30
C       5.86       8.04      26.37
C       9.43       0.56       2.34
C      13.58       8.26       2.35
C       4.78       7.90       2.42
C      13.91       8.44      24.96
N       7.63       1.86      20.11
N      11.58       9.55      10.82
N      13.04      10.12      19.47
N      14.52       9.87       6.81
N       7.02       1.70       3.74
N       5.61       9.83       6.83
N       4.09       6.64       8.81
N      13.19       5.56      22.62
N      17.94      11.36      19.76
O       8.80       3.61      15.50
O      11.21       7.80      12.79
O      12.22       5.79      12.71
O      10.92       3.63      12.52
O       9.66       5.64      13.98
O       6.21       9.18      26.77
O      11.52       0.42      26.79
O       9.24       0.57      26.86
O      14.05       9.64      26.95
O      15.18       7.68      26.73
O       5.06       7.23      26.97
O       7.48       5.95      15.51
O       5.26       8.94       1.89
O      10.52       0.12       1.90
O       8.29       0.45       1.72
O      13.31       9.43       1.90
O      14.06       7.32       1.64
O       3.96       7.09       1.87
O      15.67       9.35       0.44
O       8.43       7.97      15.10
O      10.94       7.69      15.39
O      12.09       5.73      15.36
O      11.05       3.42      15.16
O       8.66       3.54      12.64
O       7.36       5.95      12.65
O       8.70       7.77      12.43
O       6.45       3.89      14.20
O       6.33      11.00       0.44
F       8.83       4.01      22.28
F      12.01       9.74       8.23
F      14.14       5.47       8.11
F      13.66       5.15      10.67
F       7.20       2.44       6.28
F      11.64       3.57       7.62
F       7.66       1.69      10.85
F       5.98       5.07       6.26
F       5.32       5.27       3.66
F       9.43       7.81       9.76
F      15.62       8.85      21.20
F      11.32       4.41      20.36
