194

Al       6.74       2.00      13.76
Al      11.64      10.69      13.77
Al      14.63      10.59      13.79
Al      13.32       1.93      27.23
Al      11.73       4.70      27.21
Al      14.72       4.81      27.15
H      10.60       7.88       5.91
H      14.37       6.25      19.15
H      12.28       9.91      20.12
H      12.11      10.43      17.71
H      15.53      10.56      17.70
H       8.67       3.52      21.45
H       9.18       4.09      23.83
H      11.95      10.04       7.17
H      15.95      10.93      20.12
H      11.89       0.76      24.01
H       9.83       3.71      19.39
H       7.90       2.74       6.02
H       9.17       3.33      17.01
H       1.04       1.46      20.87
H      13.77       1.68      23.30
H       4.77       3.57      21.37
H      14.19       9.60       5.43
H       4.24       3.92      23.78
H       2.73       0.18      19.73
H      15.29       7.86       7.37
H      17.20      11.39       5.71
H      12.30       1.28       7.67
H      11.75       3.74       6.36
H       9.16       5.24       7.47
H       8.36       4.25       8.72
H      10.06       4.72       8.92
H       5.90       4.25       6.45
H       5.86       3.56       4.80
H       4.68       4.79       5.27
H      10.36      10.09       5.46
H       9.37      10.89       4.22
H      11.12      11.10       4.20
H       7.54      10.97       6.74
H       3.11       3.87       7.87
H       8.53      10.76       8.08
H      15.76       7.54      20.36
H      16.51       7.12      21.82
H      10.06       7.37      21.64
H      10.94       7.76      20.25
H      10.73       7.61      25.07
H      10.04       8.17      23.55
H      10.09       6.43      23.93
H      18.65      10.89      22.06
H      17.94      11.24      20.55
H       5.75       1.10       6.79
H       3.58       4.96      16.57
H       5.27       4.41      16.42
H       4.08       3.85      15.28
H       4.27       5.21      18.58
H       3.52       4.75      20.01
H       9.48      10.07      18.05
H       9.84      10.48      16.41
H      14.35       4.80       6.95
H      13.42       4.73       5.43
H      15.03       5.46       5.44
H      14.28       2.62       6.22
H      14.11      11.19       6.78
H       7.80       0.22       8.36
H      14.34       6.87      16.76
H      11.71       6.11       7.81
H      15.33       6.78      23.86
H       7.01       4.19      12.96
H      19.12      11.18      26.84
C       4.68       1.02      11.72
C      13.04       8.33       9.39
C      11.33       1.60       7.29
C      13.12       9.09      11.92
C      10.46       0.84       6.23
C      10.53       2.64       2.93
C       9.63       1.32      10.75
C      11.02       2.96       6.60
C      10.16       2.21       5.50
C       9.73       3.16       7.47
C      10.05       1.79       8.20
C      13.05       8.56      10.59
C       8.88       2.41       6.39
C       9.18       1.03       7.11
C      10.30       2.45       4.11
C       9.02       1.07      12.02
C       9.89       1.54       9.58
C       3.25       2.99       7.25
C       4.31       2.85       6.10
C       2.74       2.71       2.66
C       4.22       1.19      10.37
C       2.16       2.30       6.36
C      13.51       6.66       6.36
C       3.21       2.16       5.18
C       2.57       0.90       6.91
C       3.67       1.58       7.83
C       3.64       0.74       5.74
C       4.43       1.22      15.55
C       4.72       1.43       6.64
C       2.96       2.47       3.83
C       3.95       1.33       9.19
C      13.19       8.67      17.07
C      13.87       7.53      17.49
C      12.88       7.65       5.28
C      13.90       7.19      18.85
C      13.32       8.03      19.82
C      12.70       9.22      19.38
C      12.61       9.52      18.03
C      14.50       7.43      21.98
C      13.11       9.10      15.65
C      14.43       7.05      23.32
C      11.99       7.31      23.34
C      12.06       7.60      21.95
C      13.30       7.68      21.27
C      14.25       7.86       7.03
C      13.20       6.97      23.99
C       9.12       1.19      17.21
C       9.24       0.10      18.08
C       9.51       0.32      19.43
C       9.74       1.62      19.92
C       9.63       2.70      19.03
C       8.71       0.97      15.80
C       9.30       2.50      17.70
C       9.40       2.93      22.01
C       9.66       3.24      23.34
C      13.01       8.09       7.99
C      11.18       1.35      23.43
C      10.98       1.07      22.07
C      10.04       1.86      21.35
C      10.56       2.44      24.05
C       3.81       1.61      16.83
C       3.88       2.96      17.26
C       3.58       3.28      18.60
C      12.26       6.89       7.28
C       3.21       2.26      19.50
C       3.04       0.96      19.03
C      13.63       8.84       5.99
C       3.29       0.60      17.70
C       1.77       1.98      21.50
C       1.52       2.11      22.86
C       3.55       3.38      23.14
C       3.83       3.21      21.78
C       2.94       2.51      20.94
C       2.40       2.81      23.69
C      11.05       2.86       1.61
C      11.64       7.88       6.24
C      12.92       6.40       1.43
C      12.39       9.07       6.92
C       2.21       2.99       1.35
C      11.00       2.78      25.43
C      13.23       6.37      25.35
C       2.03       2.95      25.12
C      12.90       7.03       2.72
C       9.31       4.41       8.18
C       5.24       3.92       5.64
C      10.25      11.01       4.86
C      10.65       7.38      24.01
C       4.21       4.10      16.33
C      12.86       7.36       3.89
C      14.11       5.34       6.03
N       8.10      11.44       7.46
N      15.74       7.61      21.37
N      10.87       7.84      21.26
N      11.77       0.12      21.46
N       3.55       4.63      19.00
N       9.49      10.77      17.32
N       8.31      -0.01       7.51
O       8.17       1.92      12.40
O      14.06       6.16       0.91
O       2.47       4.16       0.86
O       5.48       1.88      12.18
O      14.37       2.10      25.59
O      11.71       1.95      26.06
O      10.69       3.96      25.87
O      12.13       6.03      25.91
O      14.38       6.13      25.88
O       2.53       3.95      25.79
O      13.26       3.84      27.22
O      11.96       9.50      15.23
O      10.72      11.43      12.34
O      12.03       9.27      12.56
O      14.29       9.42      12.33
O       9.34      -0.02      12.63
O       8.05       1.88      15.22
O       5.35       1.95      15.08
O       4.08       0.09      14.98
O      14.18       9.14      14.96
O      15.47      11.29      15.29
O       6.71       0.09      13.75
O       1.51       2.10       0.81
O      11.98       2.08       1.24
O      10.57       3.85       0.93
O      11.78       6.08       0.93
O       6.71       3.76      13.78
O      13.41       0.18      27.25
