49

Al      -0.28       4.02       6.94
H       1.72      14.17       1.07
H       1.70       9.87       1.07
H       1.74      12.03       4.80
H       2.86       1.77       3.49
H       3.00      -0.37       2.28
H       0.77      -2.30       5.42
H       0.68      -0.17       6.66
H       0.44       5.88      13.08
H       0.57       5.89      10.61
H       2.75       2.18      10.71
H       2.66       2.19      13.18
H       2.83       8.44       2.26
H       2.85       6.30       3.51
H       0.59       8.13       6.68
H       0.61      10.29       5.45
C       1.71       4.02       9.01
C       1.72       5.80       5.92
C       1.72       2.23       5.92
C       1.76      12.02       0.90
C       1.72      13.23       1.62
C       1.68      13.25       3.02
C       1.70      12.02       3.71
C       1.72      10.80       3.02
C       1.74      10.82       1.62
C       2.39       0.88       3.91
C       2.46      -0.33       3.22
C       1.90      -1.50       3.76
C       1.26      -1.42       5.01
C       1.20      -0.21       5.71
C       1.76       0.94       5.16
C       0.98       5.08      12.57
C       1.04       5.09      11.18
C       1.67       4.03      10.50
C       2.24       2.98      11.23
C       2.17       2.99      12.62
C       1.54       4.03      13.32
C       2.33       8.37       3.22
C       2.34       7.18       3.92
C       1.72       7.08       5.17
C       1.09       8.21       5.72
C       1.11       9.42       5.03
C       1.72       9.52       3.76
O       0.77       3.04       5.66
O       0.78       3.39       8.41
O       0.78       5.60       6.77
O       2.66       2.43       6.76
O       2.65       4.96       5.66
O       2.66       4.64       8.43
