146

Zn       1.64       9.25       1.17
Zn       9.23      -1.55      13.73
Zn       9.29       1.65      13.75
Zn      16.27       9.33       1.32
Zn      -1.29       9.31      13.74
Zn       8.93      17.00       1.26
Zn       8.86       1.59       1.27
Zn       1.97       9.38      13.74
H       2.79      13.84       1.77
H       2.14      14.46       0.24
H       3.71      16.19       0.30
H       4.36      15.55       1.81
H      -3.96       6.15      12.82
H      -2.66       4.97      12.75
H      -5.52       4.40      12.78
H      -4.21       3.23      12.74
H       4.67      12.12       1.73
H       5.31      11.56       0.19
H       6.89      13.28       0.22
H       6.24      13.84       1.76
H      15.14       4.61       1.92
H      15.73       4.09       0.34
H      14.15       2.36       0.32
H      13.56       2.90       1.90
H       4.61      -5.95      12.94
H       3.30      -4.76      12.99
H       6.17      -4.20      12.95
H       4.85      -3.03      13.03
H      13.27       6.33       2.05
H      12.58       6.99       0.58
H      11.00       5.27       0.54
H      11.69       4.61       2.02
H       2.40       4.39       1.26
H       3.55       5.46       2.08
H       5.10       3.72       2.14
H       3.95       2.66       1.30
H       6.71       5.14       0.82
H      -1.86      -4.15      13.78
H       5.14       6.88       0.75
H      -3.43      -2.44      13.71
H      -6.20      -4.94      13.44
H      -5.08      -3.96      12.51
H      -3.51      -5.68      12.57
H      -4.62      -6.67      13.49
H      15.47      14.29       1.45
H      14.32      13.28       2.34
H      12.78      15.04       2.30
H      13.93      16.02       1.37
H      11.17      13.52       1.11
H       2.55       4.22      14.07
H      12.73      11.78       1.12
H       4.13       2.50      14.08
H       6.88       5.01      13.63
H       5.78       3.96      12.76
H       4.18       5.66      12.73
H       5.30       6.72      13.56
C      -6.03      -2.51      14.68
C       9.16       0.07      11.26
C      -6.01       2.58      14.73
C      15.31      11.88       0.23
C       0.14       9.30       3.73
C      15.31       6.74       0.23
C       6.40      15.98       0.07
C       8.89      -0.01       3.75
C       6.37       2.57       0.06
C      11.45       2.59       0.18
C       0.37       9.32      11.26
C      11.48      16.05       0.17
C       1.31       9.31       6.03
C      -0.76       9.31       8.95
C       0.20       9.31       5.19
C       0.34       9.32       9.79
C      -0.42       9.31       7.58
C       0.97       9.32       7.40
C       9.13       1.13       8.91
C       9.00      -1.08       6.09
C       9.14       0.06       9.79
C       8.96      -0.01       5.21
C       9.06      -0.68       7.44
C       9.08       0.72       7.56
C       3.06      14.14       0.75
C       4.11      15.28       0.78
C       5.39      14.84       0.04
C      -3.56       5.25      13.31
C      -4.60       4.10      13.29
C       3.64      12.91       0.00
C       4.92      12.44       0.71
C       5.96      13.58       0.73
C      14.83       4.38       0.89
C      13.78       3.23       0.87
C      12.47       3.73       0.21
C       4.23      -5.08      13.49
C       5.26      -3.93      13.51
C      14.24       5.65       0.23
C      12.99       6.07       1.02
C      11.94       4.93       1.00
C       3.42       4.79       1.22
C       4.46       3.64       1.25
C      -3.23      -5.55      14.71
C      -2.52      -4.19      14.67
C      -3.56      -3.04      14.62
C      -4.99      -3.62      14.65
C      -5.17      -4.55      13.43
C      -4.13      -5.69      13.47
C      14.45      13.89       1.43
C      13.42      15.05       1.40
C      12.51      14.92       0.15
C      11.80      13.55       0.21
C      12.84      12.41       0.22
C      14.27      12.99       0.19
C       5.87       4.61      13.65
C       4.81       5.74      13.62
S      -1.29       9.31       6.09
S       1.84       9.33       8.89
S       9.09      -1.48       8.97
S       9.02       1.53       6.04
O      -0.04       9.29       0.15
O       2.73       7.67       0.81
O       9.12      -1.08      11.82
O      -7.03       2.79      13.99
O      -7.02      -2.61      13.88
O       2.75      10.81       0.75
O       9.23       1.20      11.83
O       7.72       2.75      14.15
O      -1.04       9.30       3.22
O      15.14      10.93       1.07
O       1.25       9.30       3.10
O       7.73      -2.71      14.19
O      15.14       7.75       0.99
O       8.94       0.01       0.12
O      -2.44       7.76      14.08
O       8.83      -1.15       3.17
O       7.27       2.69       0.96
O       7.42      15.84       0.82
O      -2.33      -7.65      13.98
O       8.91       1.14       3.19
O      10.44       2.71       0.94
O       1.53       9.39      11.81
O       3.13      -7.64      14.14
O      -0.76       9.25      11.84
O      10.57      15.96       1.06
O       3.03       7.75      14.05
F       2.58       9.31       5.61
F      -2.04       9.31       9.36
F       9.15       2.42       9.27
F       8.97      -2.37       5.73
