54

Mg      -2.49       7.96       5.29
Mg      -0.20       8.13       3.50
Mg       2.10       6.49       4.25
Mg       4.79      -0.43       7.75
Mg       2.49      -0.61       9.54
Mg       0.19       1.04       8.79
H       2.23       4.34       6.95
H      -2.37      11.37       5.81
H      -0.07       6.87       0.29
H       0.07       3.19       6.09
H       4.66      -3.85       7.23
H       2.36       0.66      12.75
C       4.06       5.02       6.07
C      -0.54      10.27       5.65
C       1.76       7.29       1.32
C      -1.76       2.50       6.97
C       2.83      -2.74       7.39
C       0.53       0.24      11.72
C      -0.52       5.55       5.10
C       1.78       9.17       5.69
C       4.07       7.87       2.26
C       2.81       1.98       7.94
C       0.52      -1.64       7.35
C      -1.78      -0.34      10.78
C       3.27       4.09       6.75
C      -1.32      11.33       6.12
C       0.97       7.16       0.17
C      -0.98       3.43       6.29
C       3.62      -3.80       6.92
C       1.32       0.37      12.87
C      -1.46       4.67       5.83
C       0.83      10.24       6.08
C       3.13       7.67       1.13
C       3.76       2.86       7.21
C       1.46      -2.72       6.96
C      -0.84      -0.14      11.91
O       3.49       6.19       5.67
O      -1.10       9.35       4.85
O       1.20       7.05       2.52
O      -1.20       1.34       7.37
O       3.39      -1.82       8.19
O       1.10       0.48      10.52
O      -0.95       6.71       4.72
O       1.35       8.26       4.87
O       3.64       7.62       3.45
O       3.24       0.82       8.32
O       0.95      -0.73       8.17
O      -1.35      -0.09       9.59
O       0.67       5.18       4.86
O       2.97       9.15       6.12
O      -1.62       8.26       2.06
O       1.62       2.35       8.18
O      -0.68      -1.62       6.92
O       3.92      -0.73      10.98
