100

Al       0.80       9.75       8.44
Al       4.12       9.70       8.38
Al       4.25      16.24       0.01
Al       0.91       0.03       0.11
H       3.91      12.96       5.80
H       1.14      13.18       2.74
H       1.16      11.57       4.66
H       0.84      13.45      10.50
H       3.72      11.88      11.83
H       4.41      15.82      14.52
H       4.30       6.12       5.99
H       0.30       7.50       5.19
H       5.16       4.08       4.86
H       6.64       5.70       3.50
H       4.83       2.25       3.19
H       0.84       3.63       2.38
H       0.48       6.67      11.28
H       0.65       5.07      13.21
H       4.70       6.34      13.92
H       4.55       7.89      11.95
H       1.97       0.91       4.44
H       2.23      17.33       6.19
H       1.38      15.92       5.51
H       3.73      15.32       6.17
H       4.38      16.59       5.14
H       3.52      15.46       3.10
H       2.64      14.30       4.09
H       2.47      11.32       7.71
H       5.83       8.02       8.09
H       2.74      17.82      16.28
H       6.11       4.78      16.08
C       2.45       7.95       6.74
C       2.44       8.29      10.34
C       5.72      11.46      10.08
C       5.83      11.23       6.50
C       4.76      13.02       5.12
C       4.74      13.96       4.09
C       5.86      13.99       3.21
C       0.30      13.13       3.43
C       0.31      12.23       4.49
C       5.85      12.17       5.34
C       5.64      12.56      11.09
C       6.26      16.72      13.96
C       0.83      15.65      12.13
C       0.73      16.68      13.08
C       5.27      15.76      13.85
C       5.37      14.69      12.94
C       6.50      14.61      12.06
C       6.62      13.53      11.16
C       4.50      12.63      11.93
C       4.38      13.66      12.85
C       2.32       6.90       5.69
C       2.80       2.84       2.70
C       4.22       3.99       4.30
C       4.04       2.98       3.39
C       1.78       3.75       2.92
C       1.95       4.82       3.82
C       3.19       4.95       4.53
C       3.35       6.01       5.45
C       1.09       6.78       4.99
C       0.92       5.78       4.06
C       1.40       6.59      11.87
C       1.49       5.71      12.94
C       2.68       5.62      13.68
C       3.79       6.41      13.33
C       3.70       7.28      12.25
C       2.51       7.38      11.52
C       2.75       4.70      14.85
C       2.65       1.73       1.72
C       5.92      14.85       1.99
C       6.16      17.75      15.05
C       3.56      14.90       4.04
C       3.54      15.87       5.24
C       2.22      16.62       5.35
C       1.94      15.61      11.24
C       3.24      13.72      13.70
C       1.75      17.67      13.10
N       2.86      15.53      10.52
N       2.30      13.80      14.39
N       2.62      18.45      13.02
O       3.54       8.53       9.76
O       1.35       8.32       7.27
O       0.31      10.79       6.89
O       1.30       8.74       9.99
O       0.21      11.18       9.60
O       3.61       8.39       7.04
O       2.47      10.55       8.31
O       4.61      10.92       9.78
O       4.70      10.95       7.02
O       5.79       8.91       8.46
O       1.50       1.44       1.28
O       3.89       4.42      15.34
O       4.99      18.15      15.36
O       3.74       1.15       1.39
O       4.84      15.02       1.34
O       1.62       4.30      15.30
O       2.58      15.44       0.07
O       0.42      15.30       1.64
O       0.61      18.08      15.59
O       6.11       4.00      16.66
