80

Zn       5.24       5.98       8.80
Zn       5.24       8.78       8.91
H       3.77      10.99       7.56
H       3.71      13.47       7.58
H       6.82      13.28      10.63
H       6.73      10.86      10.43
H       3.68       1.50       7.06
H       6.74       1.31      10.16
H       6.67       3.77      10.20
H       3.79       3.91       7.23
H       5.27       9.69       4.68
H       5.30       9.81       2.22
H       5.29       5.47       2.09
H       5.26       5.41       4.49
H       5.19       9.32      15.61
H       5.18       4.97      15.52
H       5.21       5.07      13.06
H       5.22       9.35      13.19
H       9.60      10.38       9.87
H       9.59      10.45       8.09
H       0.87      10.45       8.08
H       0.88      10.38       9.86
H       6.68      14.92      10.55
H       3.80      -0.15       7.17
H       5.30       5.75       0.53
H       5.18       9.05      17.19
C       5.23       7.45       6.25
C       2.59       7.44       8.85
C       5.24       7.24      11.47
C       7.88       7.43       8.87
C       4.42      11.56       8.22
C       4.40      12.95       8.24
C       5.25      13.66       9.11
C       6.10      12.87       9.91
C       6.07      11.48       9.83
C       5.30      15.12       9.21
C       5.17      -0.35       8.50
C       4.39       1.90       7.79
C       5.22       1.11       8.61
C       6.06       1.82       9.49
C       6.03       3.21       9.52
C       4.43       3.29       7.86
C       5.25       7.54       4.75
C       5.27       8.77       4.09
C       5.29       8.84       2.70
C       5.29       7.67       1.90
C       5.28       6.44       2.60
C       5.26       6.37       3.98
C       5.30       7.66       0.43
C       5.18       7.13      17.29
C       5.20       8.34      15.10
C       5.19       7.12      15.82
C       5.19       5.94      15.03
C       5.21       5.99      13.65
C       5.22       7.22      12.96
C       5.21       8.39      13.71
C       9.39       7.31       8.85
C       1.09       7.31       8.85
C      10.16       8.47       8.90
C       0.33       6.11       8.81
C       0.31       8.47       8.89
C      10.15       6.10       8.80
C      10.07       9.98       8.96
C       0.40       9.98       8.95
Br       1.20       4.41       8.79
Br       9.28       4.41       8.69
N       5.25      10.83       8.99
N       5.23       3.94       8.72
O       5.22       6.28       6.75
O       5.23       8.55       6.90
O       3.08       8.61       8.89
O       3.26       6.36       8.81
O       5.25       8.39      10.90
O       5.26       6.12      10.87
O       7.21       6.36       8.82
O       7.40       8.61       8.93
O       6.83      -0.74      10.12
O       3.65      15.51       7.60
O       5.16       4.80      17.54
O       5.31       9.99       0.17
