80

Al       5.96      12.35       9.93
Al       2.62      12.34       9.94
Al       2.49      18.19       0.02
Al       5.83      18.18       0.01
H       5.75       8.00       4.84
H       2.33      17.12      14.73
H       2.42      19.09      16.27
H       6.36      17.99      13.44
H       4.30      10.59      10.14
H       0.96      13.95       9.26
H       4.23       8.22      19.56
H       1.02      22.94      19.69
C       4.29      13.60       7.86
C       4.29      14.24      11.42
C       0.94      11.10      11.99
C       0.95      10.43       8.44
C       6.46       6.18       3.97
C       0.69       5.10       3.99
C       1.72       5.20       4.96
C       1.85       6.30       5.80
C       0.89       7.34       5.79
C       6.53       7.24       4.86
C       0.63       3.99       3.13
C       0.95       8.42       6.69
C       0.95       9.34       7.48
C       0.67       3.00       2.42
C       0.90       8.46      16.52
C       0.91       9.07      15.46
C       0.92       9.76      14.30
C       0.93      10.38      13.24
C       4.27      14.31       6.61
C       4.24      14.93       5.56
C       4.21      15.62       4.39
C       4.17      16.24       3.34
C       3.28      18.81      15.66
C       4.45      19.60      15.78
C       5.54      19.26      14.96
C       5.50      18.20      14.07
C       4.34      17.40      13.99
C       3.23      17.73      14.80
C       4.44      20.70      16.66
C       4.30      16.30      13.10
C       4.29      15.35      12.34
C       4.37      21.65      17.43
C       4.37      22.76      18.34
C       4.15      16.94       2.08
C       0.68       1.88       1.52
C       0.90       7.75      17.77
N       5.35       6.21       2.99
N       2.70       4.09       5.07
N       2.97       6.37       6.75
N       6.81      20.01      15.04
O       3.15      13.80      11.07
O       5.43      13.32       8.34
O       6.50      10.85       8.81
O       5.43      13.82      11.04
O       6.49      11.38      11.50
O       3.15      13.33       8.37
O       4.29      11.56      10.06
O       2.08      11.36      11.50
O       2.09      10.85       8.81
O       0.95      13.12       9.76
O       5.29      17.17       1.55
O       3.23      23.17      18.75
O       2.04       7.45      18.25
O       3.01      17.24       1.62
O       1.81       1.47       1.12
O       5.51      23.22      18.67
O       4.23       7.26      19.70
O       6.23       1.42       1.20
O       6.45       7.52      18.29
O       0.82      17.39       0.13
O       4.40       6.96       3.23
O       5.46       5.49       1.99
O       2.24       2.98       5.32
O       3.89       4.39       4.91
O       3.03       5.47       7.61
O       3.74       7.32       6.63
O       0.45      20.46      16.15
O       0.79      20.11      14.00
