268

Ni      18.44      -0.00      17.41
Ni      22.47       8.71       8.71
Ni      10.39      17.41       0.00
Ni      14.42       8.70       8.71
H      20.64      10.64      12.36
H      20.64       6.77       5.06
H      16.61       3.65      15.47
H      16.61      13.76       1.93
H      12.59       5.06       6.77
H      12.59      12.36      10.64
H       8.56       1.93      13.76
H      24.67      15.47       3.65
H      18.80      11.82      13.56
H      18.80       5.59       3.85
H      14.77       4.86      14.30
H      14.77      12.56       3.11
H      10.74       3.85       5.59
H      26.85      13.56      11.83
H      22.82       3.11      12.56
H      22.83      14.29       4.86
H      16.93      12.71       9.78
H      16.93       4.70       7.63
H      12.90       1.08      13.40
H      12.90      16.34       4.01
H       8.87       7.63       4.70
H      24.98       9.78      12.71
H      20.96       4.00      16.34
H      20.96      13.40       1.08
H      18.78      11.53       8.60
H      18.78       5.87       8.82
H      22.81      17.30      14.57
H       6.70       0.11       2.84
H      10.72       8.82       5.87
H      10.72       8.59      11.54
H      14.76       2.84       0.11
H      14.75      14.57      17.31
H      18.08      14.00      13.86
H      18.08       3.41       3.55
H      14.05       5.15      12.11
H      14.05      12.26       5.30
H      10.02       3.55       3.41
H      26.13      13.85      14.01
H      22.11       5.29      12.27
H      22.10      12.11       5.15
H      16.35      15.24      15.12
H      16.35       2.17       2.29
H      12.32       6.42      10.87
H      12.32      10.99       6.54
H       8.30       2.29       2.17
H      24.40      15.12      15.25
H      20.38       6.54      11.00
H      20.37      10.87       6.42
H      13.30      13.54      12.59
H      13.31       3.87       4.82
H       9.27       3.88      12.58
H       9.28      13.53       4.83
H       5.25       4.82       3.87
H      21.36      12.58      13.55
H      17.33       4.83      13.53
H      17.33      12.58       3.89
H      15.03      12.32      11.30
H      15.04       5.09       6.11
H      11.00       2.60      13.80
H      11.00      14.81       3.61
H       6.98       6.11       5.10
H      23.09      11.30      12.32
H      19.06       3.61      14.81
H      19.06      13.80       2.60
H      30.84      17.11      14.75
H      14.73       0.29       2.66
H      10.70       6.04       9.01
H      10.70      11.36       8.41
H       6.67       2.66       0.29
H      22.78      14.75      17.12
H      18.76       8.40      11.37
H      18.76       9.00       6.05
H      21.00       0.83      16.06
H      21.00      16.57       1.36
H       8.92       7.35       7.87
H      25.03      10.06       9.54
H      12.94       1.35      16.57
H      12.95      16.06       0.84
H      16.98       9.54      10.06
H      16.97       7.87       7.35
H      26.79      14.79      16.26
H      10.68       2.62       1.14
H      22.75       7.56      11.32
H      22.76       9.85       6.09
H       2.62       1.14       2.62
H      18.73      16.26      14.79
H      14.70       6.08       9.85
H      14.70      11.32       7.56
H      28.45      13.51      14.89
H      12.34       3.89       2.52
H      24.42       6.18      12.60
H       8.31      11.23       4.81
H       4.29       2.52       3.89
H      20.40      14.89      13.52
H      16.37       4.81      11.23
H      16.36      12.60       6.19
C      20.93      10.31       9.72
C      20.93       7.10       7.70
C      16.90       1.01      15.81
C      16.90      16.40       1.60
C      12.87       7.70       7.10
C      12.87       9.71      10.31
C       8.85       1.60      16.40
C       8.85      15.80       1.01
C      19.84      11.04      10.41
C      19.84       6.36       7.01
C      15.81       1.70      15.07
C      15.81      15.71       2.34
C      11.78       7.01       6.37
C      11.78      10.41      11.05
C      23.87       2.33      15.71
C      23.87      15.07       1.71
C      19.83      11.12      11.81
C      19.84       6.29       5.61
C      15.80       3.10      14.99
C      15.80      14.31       2.42
C      11.78       5.61       6.29
C      11.78      11.81      11.12
C       7.75       2.41      14.31
C      23.86      14.99       3.10
C      18.81      11.78      12.47
C      18.81       5.63       4.94
C      14.78       3.77      14.34
C      14.78      13.65       3.07
C      10.75       4.94       5.63
C      26.86      12.47      11.78
C      22.83       3.07      13.65
C      22.83      14.33       3.77
C      17.75      12.37      11.75
C      17.75       5.04       5.66
C      13.72       3.05      13.75
C      13.72      14.36       3.66
C       9.69       5.66       5.04
C      25.80      11.75      12.37
C      21.77       3.66      14.36
C      21.77      13.75       3.05
C      17.74      12.26      10.35
C      17.74       5.15       7.06
C      13.71       1.65      13.85
C      13.72      15.77       3.56
C       9.69       7.06       5.15
C      25.80      10.35      12.26
C      21.77       3.55      15.77
C      21.77      13.85       1.65
C      18.78      11.61       9.69
C      18.78       5.79       7.73
C      14.75       0.98      14.50
C      14.75      16.43       2.91
C      10.72       7.73       5.80
C      10.72       9.68      11.61
C      22.81       2.91      16.43
C      22.81      14.50       0.98
C      16.69      13.09      12.48
C      16.69       4.31       4.93
C      12.66       3.77      13.02
C      12.66      13.64       4.39
C       8.63       4.93       4.32
C      24.74      12.47      13.09
C      20.71       4.38      13.64
C      20.71      13.02       3.78
C      17.03      13.92      13.56
C      17.03       3.49       3.85
C      13.00       4.86      12.20
C      13.00      12.55       5.21
C       8.98       3.84       3.49
C      25.09      13.56      13.92
C      21.06       5.21      12.56
C      21.06      12.20       4.86
C      16.06      14.63      14.27
C      16.07       2.78       3.14
C      12.03       5.56      11.49
C      12.04      11.85       5.92
C       8.01       3.14       2.78
C      24.12      14.26      14.63
C      20.09       5.92      11.85
C      20.09      11.49       5.56
C      14.71      14.50      13.92
C      14.71       2.91       3.49
C      10.68       5.21      11.62
C      10.68      12.20       5.79
C       6.66       3.49       2.91
C      22.77      13.92      14.50
C      18.74       5.79      12.20
C      18.73      11.62       5.22
C      14.36      13.65      12.85
C      14.36       3.75       4.56
C      10.33       4.15      12.47
C      10.33      13.26       4.95
C       6.30       4.56       3.75
C      22.41      12.85      13.66
C      18.38       4.94      13.27
C      18.38      12.46       4.15
C      15.33      12.97      12.12
C      15.33       4.43       5.29
C      11.30       3.42      13.14
C      11.30      13.99       4.27
C       7.28       5.29       4.43
C      23.39      12.12      12.98
C      19.36       4.26      13.99
C      19.36      13.14       3.42
C      29.79      15.21      14.69
C      13.68       2.19       2.72
C       9.65       5.98      10.91
C       9.65      11.43       6.51
C       5.63       2.72       2.20
C      21.74      14.69      15.21
C      17.71       6.50      11.43
C      17.70      10.90       5.99
C      29.95      16.56      15.05
C      13.84       0.85       2.36
C       9.81       6.34       9.56
C       9.82      11.07       7.85
C       5.79       2.36       0.85
C      21.90      15.05      16.56
C      17.87       7.85      11.07
C      17.87       9.56       6.35
C      28.96      17.19      15.79
C      12.85       0.21       1.63
C       8.82       7.08       8.92
C       8.83      10.33       8.49
C       4.80       1.63       0.21
C      20.91      15.78      17.20
C      16.88       8.49      10.33
C      16.88       8.92       7.08
C      27.69      15.26      15.88
C      11.58       2.14       1.53
C      23.66       7.17      10.85
C      23.66      10.24       6.56
C       3.52       1.53       2.14
C      19.63      15.87      15.27
C      15.61       6.56      10.24
C      15.60      10.85       7.17
C      28.62      14.57      15.12
C      12.51       2.84       2.30
C       8.47       6.41      11.55
C       8.48      11.00       5.86
C       4.45       2.29       2.84
C      20.56      15.11      14.57
C      16.53       5.86      11.00
C      16.53      11.55       6.41
N      27.85      16.56      16.21
N      11.74       0.85       1.20
N      23.82       7.50       9.55
N      23.83       9.91       7.86
N       3.69       1.20       0.85
N      19.80      16.21      16.56
N      15.77       7.85       9.91
N      15.77       9.55       7.50
O      20.88      10.12       8.46
O      20.88       7.29       8.96
O      24.90      17.16      15.99
O       8.80       0.25       1.41
O      12.82       8.96       7.29
O      12.82       8.45      10.12
O      16.85       1.41       0.25
O      16.84      15.99      17.16
O      21.90       9.81      10.40
O      21.90       7.59       7.01
O      17.87       1.70      16.30
O      17.87      15.72       1.10
O      13.84       7.01       7.60
O      13.84      10.40       9.82
O       9.81       1.10      15.72
O       9.81      16.30       1.70
