56

Al       5.64       5.96       8.30
Al       8.98       5.92       8.36
H       3.93       7.51       7.60
H       7.28       5.30       9.93
H       8.70       5.30      12.36
H       8.52       5.38      14.85
H       5.87       6.93      15.03
H       5.64       4.48       1.70
H       2.97       6.08       1.92
H       2.72       6.29       4.40
H       9.38       8.90       9.99
H       6.13       3.21       9.85
H       2.21       1.82       7.46
H       5.40       9.97       7.51
C       7.27       8.39       8.44
C       7.35       5.70       5.94
C       4.03       3.54       8.32
C       3.98       6.04      10.78
C       4.02       6.08      12.27
C       2.87       5.66      12.96
C       9.43       5.70      14.34
C       3.85       6.19      15.08
C       5.03       6.56      14.43
C       5.12       6.51      13.04
C       6.46       4.88       2.30
C       7.65       5.27       1.67
C       2.05       5.79       2.42
C       8.57       5.91       3.79
C       7.39       5.52       4.46
C       6.34       4.98       3.69
C       7.26       9.88       8.54
C       8.30      10.62       9.20
C       6.20      10.55       7.96
C       9.34       9.99       9.94
C      10.28      10.73      10.62
C       4.08       2.05       8.47
C       3.05       1.30       7.93
C       5.16       1.40       9.16
C       6.14       2.13       9.87
C       7.12       1.49      10.59
Br       4.95       9.80      11.59
Br       1.71       2.54      11.56
N       3.85       6.35      16.49
N       7.66       5.09       0.27
Cl       6.61       7.04      12.35
Cl       4.89       4.36       4.40
O       6.13       7.81       8.47
O       8.47       5.63       6.54
O       2.90       4.10       8.43
O       5.08       5.87      10.16
O       5.13       4.13       8.09
O       2.83       6.15      10.23
O       8.39       7.79       8.30
O       6.23       5.94       6.49
O       3.96       6.56       7.78
O       7.30       5.41       8.97
