243

Cu       6.88       6.89       4.72
Cu       6.91       4.65       6.96
Cu       4.64       6.91       6.96
Cu      24.81       6.90      27.18
Cu      24.79       4.66      24.93
Cu      27.05       6.91      24.93
Cu       6.90      24.82      27.18
Cu       6.93      27.05      24.93
Cu       4.67      24.79      24.92
Cu      24.79      24.77       4.76
Cu      24.81      27.06       6.96
Cu      27.07      24.79       6.96
H       9.35       5.97       2.95
H       9.41       2.91       6.02
H       2.90       9.41       6.00
H       5.97       9.35       2.94
H       5.98       2.92       9.45
H       2.91       5.98       9.44
H      22.34       5.98      28.95
H      22.28       2.92      25.88
H      28.80       9.41      25.87
H      25.74       9.37      28.94
H      25.71       2.93      22.43
H      28.78       5.98      22.44
H       9.37      25.74      28.95
H       9.42      28.80      25.88
H       2.93      22.29      25.87
H       5.98      22.34      28.94
H       6.00      28.78      22.43
H       2.94      25.71      22.43
H      22.30      25.68       3.01
H      22.35      28.83       5.99
H      28.84      22.33       5.98
H      25.69      22.28       3.00
H      25.75      28.79       9.45
H      28.81      25.73       9.44
H      12.97       0.64       3.68
H      14.74      31.11       2.44
H      14.72       2.46      31.29
H      12.98       3.70       0.65
H      18.69       3.71      31.25
H      16.95       2.46       0.59
H      17.01      31.12      29.44
H      18.71       0.66      28.20
H      13.01      28.02      31.25
H      14.75      29.25       0.59
H      14.70       0.60      29.44
H      12.99      31.08      28.21
H      18.73      28.02       0.65
H      17.00      29.25      31.30
H      16.97       0.61       2.44
H      18.74      31.07       3.69
H       0.66      12.99       3.68
H      31.10      14.73       2.44
H       2.46      14.70      31.27
H       3.69      12.96       0.62
H      31.09      18.74       3.67
H       0.64      16.99       2.42
H      29.25      16.97      31.29
H      28.01      18.71       0.65
H      31.06      12.99      28.19
H       0.62      14.73      29.43
H      29.26      14.72       0.60
H      28.02      12.97      31.25
H       3.73      18.70      31.22
H       2.48      16.96       0.57
H      31.09      16.99      29.45
H       0.65      18.73      28.21
H       0.66       3.70      13.09
H      31.10       2.46      14.83
H       2.48      31.09      14.79
H       3.68       0.63      13.05
H       3.74      31.04      18.79
H       2.47       0.58      17.05
H      31.11      29.26      17.07
H       0.67      28.02      18.81
H      31.07      28.00      13.08
H       0.63      29.24      14.83
H      29.25       0.60      14.80
H      28.05      31.07      13.05
H      27.99       0.66      18.80
H      29.26      31.12      17.06
H       0.61       2.44      17.08
H      31.06       3.68      18.81
C       9.18       5.33       3.81
C       9.87       4.16       4.20
C       9.20       3.76       5.38
C       3.75       9.20       5.37
C       4.16       9.87       4.19
C       5.33       9.18       3.80
C       5.34       3.77       9.26
C       4.17       4.17       9.94
C       3.76       5.34       9.26
C      22.52       5.34      28.09
C      21.83       4.17      27.69
C      22.49       3.77      26.52
C      27.95       9.21      26.51
C      27.55       9.87      27.69
C      26.38       9.19      28.08
C      26.35       3.78      22.62
C      27.53       4.18      21.94
C      27.93       5.34      22.62
C       9.19      26.38      28.09
C       9.88      27.55      27.70
C       9.22      27.95      26.52
C       3.78      22.49      26.51
C       4.18      21.83      27.68
C       5.35      22.52      28.08
C       5.36      27.93      22.62
C       4.20      27.53      21.94
C       3.80      26.36      22.62
C      22.50      26.34       3.84
C      21.84      27.54       4.21
C      22.52      27.96       5.37
C      27.96      22.50       5.37
C      27.54      21.82       4.21
C      26.35      22.48       3.84
C      26.39      27.94       9.26
C      27.56      27.54       9.93
C      27.96      26.37       9.26
C       0.04      31.70      15.94
C      15.84       0.00      31.89
C       0.03      15.85      31.88
C      12.86       2.27       2.26
C      13.36       1.05       2.75
C      14.35       0.36       2.05
C      10.93       3.53       3.55
C      14.35       2.06       0.35
C      13.37       2.76       1.04
C      11.84       2.96       2.96
C      14.87       0.85       0.84
C      18.83       2.28      29.63
C      18.31       2.77      30.85
C      17.33       2.07      31.53
C      20.75       3.54      28.35
C      17.34       0.37      29.83
C      18.32       1.06      29.14
C      19.85       2.97      28.93
C      16.81       0.86      31.04
C      12.88      29.45      29.63
C      13.40      28.95      30.85
C      14.38      29.65      31.54
C      10.95      28.19      28.35
C      14.38      31.36      29.84
C      13.39      30.67      29.14
C      11.85      28.76      28.94
C      14.91      30.86      31.04
C      18.86      29.45       2.27
C      18.34      28.95       1.05
C      17.36      29.65       0.36
C      20.78      28.18       3.55
C      17.36      31.36       2.05
C      18.34      30.67       2.75
C      19.87      28.75       2.97
C      16.84      30.86       0.85
C       2.27      12.86       2.25
C       1.06      13.38       2.74
C       0.37      14.36       2.04
C       3.53      10.93       3.54
C       2.06      14.35       0.34
C       2.76      13.36       1.02
C       2.96      11.84       2.95
C       0.87      14.88       0.84
C      29.45      18.84       2.26
C      30.68      18.34       2.74
C      31.36      17.35       2.04
C      28.18      20.76       3.55
C      29.64      17.34       0.35
C      28.95      18.33       1.04
C      28.76      19.86       2.96
C      30.85      16.82       0.84
C      29.45      12.86      29.62
C      30.66      13.38      29.13
C      31.35      14.36      29.83
C      28.18      10.94      28.34
C      29.66      14.36      31.53
C      28.96      13.37      30.85
C      28.75      11.85      28.93
C      30.86      14.88      31.03
C       2.29      18.83      29.62
C       2.79      18.31      30.83
C       2.09      17.33      31.52
C       3.55      20.76      28.33
C       0.37      17.35      29.83
C       1.06      18.33      29.13
C       2.98      19.85      28.92
C       0.87      16.82      31.03
C       2.27       2.26      12.95
C       1.06       2.76      13.47
C       0.37       2.06      14.45
C       3.53       3.53      11.01
C       2.05       0.35      14.44
C       2.75       1.03      13.45
C       2.96       2.95      11.92
C       0.86       0.85      14.97
C       2.30      29.43      18.93
C       2.80      30.64      18.41
C       2.10      31.34      17.42
C       3.56      28.16      20.86
C       0.39      29.65      17.44
C       1.07      28.95      18.42
C       2.99      28.74      19.95
C       0.89      30.85      16.91
C      29.46      29.44      12.94
C      30.67      28.94      13.47
C      31.36      29.64      14.45
C      28.20      28.17      11.01
C      29.67      31.35      14.44
C      28.97      30.66      13.45
C      28.77      28.75      11.92
C      30.87      30.85      14.97
C      29.43       2.27      18.93
C      28.93       1.06      18.41
C      29.63       0.37      17.42
C      28.16       3.54      20.87
C      31.34       2.05      17.44
C      30.65       2.75      18.42
C      28.74       2.96      19.95
C      30.84       0.85      16.91
N       8.20       4.62       5.65
N       8.19       5.59       4.68
N       5.58       8.19       4.68
N       4.61       8.20       5.65
N       4.63       5.60       8.26
N       5.60       4.63       8.26
N      23.49       4.63      26.24
N      23.51       5.60      27.21
N      26.12       8.20      27.21
N      27.09       8.21      26.24
N      27.07       5.61      23.62
N      26.09       4.64      23.62
N       8.22      27.09      26.24
N       8.21      26.12      27.22
N       5.61      23.51      27.21
N       4.64      23.49      26.23
N       4.65      26.09      23.62
N       5.63      27.07      23.62
N      23.50      27.08       5.66
N      23.49      26.09       4.71
N      26.09      23.47       4.71
N      27.09      23.49       5.66
N      27.09      26.10       8.26
N      26.12      27.08       8.26
