32

Zn       3.42       4.87       6.06
Zn       6.17       4.53       5.80
H       6.02       8.31       3.57
H       5.76       1.06       4.01
H       7.23       8.91       4.72
H       3.57       1.08       8.28
H       2.37       0.49       7.14
H       3.83       8.34       7.85
C       5.00       7.27       5.74
C       4.35       0.66       6.33
C       6.18       9.03       4.39
C       3.41       0.37       7.47
C       4.59       2.13       6.11
C       4.98       4.78       8.54
C       4.61       4.62       3.31
C       5.15       4.83       9.97
C       4.44       4.57       1.88
C       5.31       4.87      11.19
C       4.28       4.52       0.67
C       5.24       8.73       5.53
I       0.79       2.88       4.27
I       8.80       6.52       7.59
N       8.36       4.40       5.67
N       1.23       4.99       6.19
O       3.82       6.85       5.95
O       5.77       2.54       5.91
O       6.04       6.53       5.65
O       3.55       2.86       6.20
O       3.79       4.95       8.10
O       5.79       4.44       3.75
O       6.03       4.57       7.86
O       3.55       4.83       4.00
