140

Al       1.48      18.79       7.12
Al       5.24       6.23      21.38
Al       4.83      18.74       7.14
Al       1.89       6.31      21.38
H       1.90      15.58       9.60
H       4.85       9.43      18.91
H       4.84       8.22      24.89
H       1.87      16.81       3.61
H       5.21      22.03       4.73
H       1.52       4.38      24.99
H       1.50       4.32      17.90
H       5.22      20.70      10.65
H       4.68      14.88      12.58
H       2.05      10.14      15.91
H       1.92      11.28      25.88
H       4.80      13.74       2.63
H       1.41      22.57       1.59
H       5.31       1.32      25.91
H       5.26       1.25      16.87
H       1.46      23.78      11.63
H       4.54      16.52      10.70
H       2.20       8.48      17.78
H       2.12       9.62      24.03
H       4.58      15.42       4.47
H       1.21      21.00       3.54
H       5.50       3.03      24.09
H       5.49       2.93      18.71
H       1.24      22.09       9.79
H       3.12      17.00       7.03
H       3.61       8.04      21.43
H       6.47      20.53       7.11
H       0.27       4.50      21.46
C       3.17      20.35       8.96
C       3.57       4.66      19.57
C       3.53       4.71      23.23
C       3.17      20.41       5.35
C       6.52      17.17       5.31
C       0.18       7.88      23.19
C       0.23       7.86      19.56
C       6.52      17.14       8.93
C       1.04      15.42      10.26
C       5.70       9.59      18.24
C       5.68       8.88      25.13
C       1.03      16.16       3.38
C       4.38      22.16       4.05
C       2.35       3.71      25.19
C       2.34       3.67      17.65
C       4.38      21.36      10.89
C       1.10      14.47      11.28
C       5.64      10.54      17.23
C       5.59       9.75      26.21
C       1.12      15.27       2.30
C       4.46      23.08       3.01
C       2.27       2.81      26.25
C       2.24       2.79      16.57
C       4.47      22.24      11.96
C       6.70      14.29      12.15
C       0.03      10.73      16.36
C      -0.04      10.64      26.49
C       6.75      14.38       2.02
C       3.40      23.20       2.08
C       3.32       1.89      26.48
C       3.30       1.90      16.28
C       3.41      23.13      12.24
C       5.53      15.04      11.92
C       1.20       9.98      16.57
C       1.10      10.59      25.67
C       5.61      14.44       2.84
C       2.23      22.45       2.30
C       4.49       2.01      25.70
C       4.45       1.95      17.08
C       2.27      23.08      11.42
C       5.45      15.96      10.88
C       1.29       9.05      17.61
C       1.21       9.68      24.63
C       5.49      15.36       3.87
C       2.13      21.57       3.37
C       4.59       2.95      24.68
C       4.58       2.87      18.12
C       2.15      22.15      10.39
C       6.57      16.16      10.06
C       0.18       8.85      18.44
C       0.14       8.83      24.34
C       6.56      16.22       4.15
C       3.22      21.40       4.23
C       3.50       3.78      24.39
C       3.50       3.72      18.42
C       3.22      21.30      10.11
C       0.01      11.69      15.24
C       0.03      13.33      13.27
C       0.09      13.39       0.94
C       6.63      11.64      27.57
C       3.25       0.79      27.45
C       3.47      24.04       0.87
C       3.44      24.13      13.32
C       3.26       0.91      15.19
N       5.63      12.55      13.42
N       1.10      12.48      15.09
N       0.50      12.84      27.30
N       6.21      12.19       1.21
N       2.31      24.37       0.26
N       4.41       0.21      27.83
N       3.98      24.70      15.47
N       2.71       0.33      13.05
N       5.62      11.70      14.43
N       1.11      13.32      14.08
N       0.51      13.75      28.26
N       6.20      11.28       0.26
N       2.05       0.24      27.75
N       4.67      24.27       0.28
N       3.99      23.79      14.51
N       2.70       1.24      14.01
Cl       2.51      13.47      11.39
Cl       4.23      11.54      17.13
Cl       4.12       9.76      27.11
Cl       2.59      15.26       1.40
Cl       5.86      24.09       2.96
Cl       0.88       2.90      27.27
Cl       0.76       2.80      15.67
Cl       5.95      22.26      12.86
O       4.29      20.02       5.82
O       2.40       5.17      22.84
O       2.46       5.01      20.09
O       4.30      19.93       8.54
O       0.95      17.53       8.46
O       5.81       7.53      20.09
O       5.75       7.40      22.82
O       0.95      17.58       5.74
O       2.03      20.05       8.48
O       4.73       5.03      19.97
O       4.66       4.95      22.69
O       2.02      20.03       5.75
O       5.37      17.48       5.78
O       1.31       7.64      22.65
O       1.38       7.45      19.92
O       5.37      17.50       8.51
O       3.15      17.96       7.12
O       3.58       7.08      21.37
O       6.50      19.56       7.14
O       0.23       5.46      21.39
