152

Zn       8.05      10.72       1.64
Zn       7.30       6.79      11.66
Zn       6.03       0.95      18.40
Zn       6.77       4.88       8.38
H       5.76       1.67       7.40
H       7.08       7.85       6.35
H       5.51       0.30       5.56
H       3.28       8.61       1.10
H       0.74       1.14       2.15
H       7.65      10.60       9.64
H      10.31       8.75       1.14
H       7.82       1.07       2.20
H      12.79       8.61       1.15
H       5.74       8.72       1.01
H      10.28       1.14       2.21
H       3.21       1.05       2.04
H       7.03       4.17      17.42
H       8.27       9.66      16.37
H       7.28       5.54      15.58
H      12.07       8.90      11.12
H      12.05       4.70      12.17
H       7.70       6.92      19.66
H       5.04       8.76      11.16
H       4.98       4.77      12.22
H       2.56       8.90      11.17
H       9.61       8.79      11.03
H       2.52       4.70      12.23
H       9.58       4.79      12.06
H       8.31      10.01      12.64
H       6.99       3.82      13.69
H       8.56      11.38      14.48
H      10.79       3.06      18.94
H      13.33      10.53      17.89
H       6.42       1.08      10.40
H       3.76       2.92      18.90
H       6.25      10.60      17.84
H       1.29       3.06      18.89
H       8.33       2.96      19.03
H       3.79      10.54      17.83
H      10.86      10.63      18.00
H       7.04       7.50       2.62
H       5.81       2.01       3.67
H       6.79       6.14       4.46
H       2.00       2.78       8.92
H       2.02       6.98       7.87
H       6.37       4.76       0.38
H       9.04       2.92       8.88
H       9.10       6.91       7.82
H      11.51       2.78       8.87
H       4.46       2.88       9.01
H      11.55       6.98       7.81
H       4.49       6.89       7.98
C       7.58       9.89       5.81
C       7.09       8.02       9.06
C       3.03      10.72       1.63
C       7.30       8.86       6.71
C       7.85      11.18       6.28
C       3.77       9.56       1.31
C       1.22       0.20       1.89
C       7.61       9.61       4.33
C       7.86      11.45       7.65
C       7.32       9.13       8.09
C      13.07      10.72       1.66
C       7.61      10.42       8.56
C      10.92       9.63       1.38
C       8.39       0.18       1.95
C      12.31       9.57       1.38
C       5.16       9.61       1.26
C       9.78       0.20       1.97
C       2.61       0.17       1.83
C       7.77       7.63      15.83
C       8.26       9.50      19.08
C      12.32       6.80      11.65
C       8.05       8.66      16.73
C       7.50       6.34      16.30
C      11.58       7.95      11.33
C      11.57       5.64      11.91
C       7.74       7.90      14.35
C       7.49       6.06      17.67
C       8.02       8.39      18.11
C       2.28       6.80      11.68
C       7.74       7.10      18.58
C       4.43       7.89      11.40
C       4.40       5.66      11.97
C       3.04       7.95      11.40
C      10.19       7.91      11.28
C       3.01       5.64      11.99
C      10.18       5.67      11.85
C       6.49       1.79      14.23
C       6.98       3.66      10.98
C      11.04       0.96      18.41
C       6.77       2.82      13.33
C       6.22       0.50      13.76
C      10.30       2.11      18.73
C      12.85      11.48      18.15
C       6.46       2.07      15.71
C       6.21       0.22      12.39
C       6.75       2.55      11.95
C       1.01       0.96      18.38
C       6.46       1.26      11.48
C       3.15       2.05      18.66
C       5.68      11.50      18.09
C       1.76       2.11      18.66
C       8.91       2.07      18.78
C       4.29      11.47      18.07
C      11.46      11.51      18.21
C       6.30       4.05       4.21
C       5.81       2.18       0.96
C       1.75       4.88       8.39
C       6.02       3.02       3.31
C       6.57       5.34       3.74
C       2.49       3.72       8.71
C       2.50       6.04       8.13
C       6.33       3.77       5.69
C       6.58       5.61       2.37
C       6.05       3.29       1.93
C      11.79       4.88       8.36
C       6.33       4.58       1.46
C       9.64       3.79       8.64
C       9.67       6.02       8.07
C      11.03       3.73       8.64
C       3.88       3.77       8.76
C      11.06       6.04       8.05
C       3.89       6.00       8.19
N      10.24      10.76       1.64
N       5.85      10.73       1.51
N       5.11       6.76      11.66
N       9.50       6.78      11.53
N       3.83       0.92      18.40
N       8.22       0.94      18.53
N       8.96       4.92       8.38
N       4.57       4.90       8.51
O       5.56       1.01       8.14
O       6.71       6.89       8.61
O       8.02      10.60       3.60
O       7.25       8.48       3.91
O       7.29       8.27      10.30
O       7.23       4.83      18.16
O       8.64      10.62      18.63
O       7.33       6.92      13.62
O       8.10       9.03      13.93
O       8.05       9.25       0.28
O       8.51      10.66      11.90
O       7.36       4.78      11.43
O       6.05       1.08      16.44
O       6.82       3.20      16.13
O       6.78       3.41       9.74
O       6.84       6.85       1.88
O       5.43       1.06       1.41
O       6.74       4.76       6.42
O       5.97       2.64       6.11
O       6.02       2.43      19.76
