216

Zn      12.18       4.73       4.45
Zn      15.55       3.92       3.64
Zn       8.62       4.44       4.74
Zn       5.24       3.63       3.93
Zn      15.55      12.00      12.31
Zn      12.17      12.80      13.12
Zn      19.11      12.29      12.02
Zn      22.48      13.10      12.82
H      12.10       7.99       2.13
H      12.08       9.74       0.36
H      17.93       9.82      13.27
H      17.62      10.61      14.82
H      18.25       8.95      14.79
H      11.99       2.83       0.80
H      18.92       1.05      15.79
H      13.49      14.18      15.26
H      26.97      15.48      16.42
H      13.45      15.86      14.72
H      15.62       6.25       0.38
H      22.57       8.00      15.39
H      23.67      11.84      15.30
H      23.97      10.29      14.49
H      23.34      10.32      16.16
H      15.74       7.57       5.54
H      15.73       9.34       7.30
H      14.23       9.85      10.94
H      14.62       8.70       9.64
H      14.27      10.39       9.25
H       8.69       2.11       7.99
H       8.71       0.34       9.74
H      16.73      13.25       9.84
H      17.04      14.80      10.64
H      16.40      14.77       8.98
H       8.81       0.79       2.84
H      15.73      15.79       1.08
H      21.16      15.24      14.20
H      21.54      16.39      15.51
H      21.21      14.69      15.89
H       5.17       0.37       6.25
H      12.08      15.38       8.02
H      24.85      15.27      11.87
H      10.68      14.48      10.32
H      11.31      16.14      10.35
H      18.91       5.53       7.58
H      18.92       7.29       9.35
H      20.42      10.92       9.87
H      20.04       9.62       8.72
H      20.38       9.23      10.41
H      15.62       8.74      14.63
H      15.64       6.98      16.40
H       9.80       6.91       3.49
H      10.11       6.11       1.94
H       9.47       7.77       1.97
H      15.74      13.89      15.96
H       8.80      15.68       0.97
H      14.23       2.55       1.49
H       0.75       1.25       0.34
H      14.27       0.86       2.04
H      12.10      10.48      16.37
H       5.15       8.73       1.36
H       4.06       4.88       1.46
H       3.75       6.43       2.26
H       4.38       6.41       0.60
H      11.98       9.15      11.21
H      11.99       7.39       9.45
H      13.49       6.87       5.82
H      13.11       8.03       7.12
H      13.45       6.33       7.51
H      19.04      14.61       8.77
H      19.01      16.38       7.01
H      11.00       3.48       6.92
H      10.68       1.93       6.12
H      11.32       1.95       7.78
H      18.92      15.93      13.92
H      11.99       0.94      15.68
H       6.56       1.49       2.55
H       6.18       0.34       1.25
H       6.52       2.03       0.86
H      22.55      16.36      10.51
H      15.64       1.35       8.73
H       2.87       1.45       4.89
H      17.04       2.25       6.44
H      16.41       0.59       6.41
H       8.81      11.20       9.17
H       8.80       9.44       7.41
H       7.30       5.80       6.88
H       7.68       7.10       8.04
H       7.34       7.49       6.35
C      12.87       8.00       1.35
C      12.86       8.97       0.36
C      19.70      10.44      14.30
C      18.30       9.93      14.29
C      11.30       1.99       0.85
C      18.23       0.98      16.63
C      25.38      14.97      15.08
C      12.97      15.13      15.38
C      14.86       7.03       0.37
C      21.80       7.99      16.16
C      21.88      10.81      14.67
C      23.29      10.82      15.18
C      16.42       7.52       6.39
C      16.42       8.50       7.38
C      16.21      10.04      10.14
C      14.76       9.73       9.98
C       7.93       1.33       8.00
C       7.93       0.34       8.98
C      14.95      14.29      10.46
C      16.35      14.28       9.95
C       9.49       0.85       1.99
C      16.42      16.63       1.01
C      23.14      15.05      15.00
C      21.69      15.36      15.16
C       5.93       0.36       7.03
C      12.86      16.14       8.02
C      12.77      14.66      10.84
C      11.37      15.16      10.84
C      18.23       6.38       7.53
C      18.23       7.36       8.51
C      18.44      10.12      10.05
C      19.90       9.97       9.75
C      14.86       8.73      15.41
C      14.86       7.75      16.40
C       8.02       6.29       2.45
C       9.42       6.80       2.46
C      16.42      14.74      15.90
C       9.49      15.75       0.13
C       2.35       1.75       1.68
C      14.76       1.60       1.37
C      12.87       9.70      16.38
C       5.93       8.73       0.60
C       5.84       5.92       2.08
C       4.44       5.91       1.58
C      11.30       9.21      10.37
C      11.30       8.23       9.38
C      11.51       6.69       6.62
C      12.97       6.99       6.77
C      19.80      15.39       8.75
C      19.79      16.38       7.78
C      12.77       2.44       6.29
C      11.37       2.45       6.80
C      18.23      15.88      14.76
C      11.30       0.10      15.75
C       4.58       1.67       1.76
C       6.03       1.37       1.60
C      21.79      16.36       9.73
C      14.86       0.58       8.73
C      14.95       2.07       5.92
C      16.36       1.57       5.91
C       9.49      10.35       9.23
C       9.49       9.37       8.25
C       9.28       6.60       6.70
C       7.83       6.76       7.01
C      13.86       5.96       2.41
C      13.86       7.01       1.36
C      20.79       8.98      16.13
C      20.79      10.02      15.09
C       6.93       2.40       5.96
C       6.93       1.35       7.01
C      13.86      16.11       9.01
C      13.86      15.08      10.05
C      13.86      10.77      14.34
C      13.86       9.72      15.39
C       6.93       7.74       0.63
C       6.93       6.71       1.66
C      20.79      14.33      10.79
C      20.79      15.38       9.74
C      13.86       0.62       7.74
C      13.86       1.65       6.71
C      10.40       2.97       2.97
C      10.40       1.92       1.92
C      24.26      16.65      16.68
C      24.26      15.62      15.65
C      17.33       5.40       5.41
C      17.33       6.44       6.46
C      17.33       8.44       8.45
C      17.33       9.47       9.49
C      17.33      13.76      13.78
C      17.33      14.80      14.83
C       3.47       0.07       0.07
C       3.47       1.11       1.11
C      10.40      11.33      11.35
C      10.40      10.28      10.30
C      10.40       8.29       8.30
C      10.40       7.25       7.27
N      20.13      11.41      13.46
N      24.94      14.08      14.17
N      21.46      11.65      13.70
N      16.64      10.95      11.03
N      14.52      13.45      11.43
N      23.58      14.14      14.10
N      13.20      13.68      11.67
N      18.01      11.01      10.97
N       7.59       5.32       3.29
N       2.78       2.65       2.59
N       6.26       5.08       3.05
N      11.08       5.78       5.72
N      13.20       3.28       5.32
N       4.15       2.58       2.65
N      14.53       3.04       5.08
N       9.71       5.71       5.79
O      13.13       6.15       3.44
O      11.25       3.92       2.88
O      14.60       4.93       2.22
O      16.47       5.49       4.46
O       7.67       3.43       6.15
O       9.54       2.87       3.92
O       6.19       2.21       4.93
O       4.32       4.45       5.50
O      14.60      10.58      13.31
O      16.47      12.81      13.88
O      13.12      11.80      14.53
O      11.25      11.23      12.30
O      20.06      13.30      10.60
O      18.18      13.86      12.83
O      21.53      14.51      11.82
O      23.40      12.28      11.25
