132

Mg      -0.77      16.84       9.36
Mg       1.52      17.24      11.13
Mg       3.80      18.57       9.90
Mg       4.32       0.64      21.09
Mg       2.03       0.40      19.29
Mg      -0.25      -1.04      20.40
H       3.49      14.23      13.38
H      -1.08      22.02      11.38
H       1.20      16.40       5.64
H      -1.95      12.46      14.39
H       0.34      23.79      12.41
H       2.63      16.41       3.60
H      -0.82      10.58      13.70
H       1.47      24.13      14.38
H       3.76      17.94       2.31
H       2.73      11.07      14.92
H      -1.83      24.94      13.35
H       0.45      16.65       2.12
H       4.04       9.27      16.09
H       1.75      -8.26      14.33
H      -0.54      -1.02      30.38
H       0.68       6.59      15.74
H       5.25      -7.22      16.81
H       2.97       0.62      28.23
H      -0.62       8.39      14.57
H       3.95      -9.13      15.84
H       1.66       0.73      30.38
H       4.25       7.10      16.96
H       1.96      -6.42      15.77
H      -0.33      -0.69      28.06
H       2.11       3.74      18.58
H      -0.18      -3.34      17.86
H      -2.46      -0.42      24.35
H       0.01       3.51      17.20
H       4.58      -4.41      18.76
H       2.30       0.90      24.83
H      -1.46       5.26      16.23
H       3.11      -6.13      17.73
H       0.83       0.86      26.84
H       1.40      13.87      12.06
H       3.69      21.06      12.35
H      -0.88      17.72       5.99
C      -0.44      14.94      11.74
C       1.85      20.25      11.58
C       4.13      17.46       7.07
C      -1.82      15.04      12.13
C       0.47      20.54      11.31
C       2.76      17.07       6.95
C      -2.33      14.12      13.08
C      -0.04      21.82      11.62
C       2.25      16.71       5.69
C      -1.54      13.13      13.64
C       0.74      22.79      12.20
C       3.03      16.72       4.56
C      -0.18      13.03      13.25
C       2.10      22.51      12.49
C       4.39      17.11       4.66
C       0.20      10.87      14.01
C       2.49      24.25      13.97
C       4.78      17.53       2.41
C       0.98       9.84      14.68
C       3.27      25.34      14.53
C       5.56      17.47       1.18
C       2.30      10.08      15.11
C      -2.27      25.59      14.11
C       0.02      16.98       1.18
C       3.01       9.08      15.75
C       0.73      -8.45      14.65
C      -1.56      -0.64      30.39
C       2.44       7.82      15.98
C       0.15      -7.62      15.63
C      -2.14      -0.21      29.18
C       1.12       7.58      15.55
C      -1.17      -7.87      16.06
C       3.40       0.29      29.18
C       0.40       8.58      14.91
C       4.97      -8.93      15.51
C       2.69       0.34      30.37
C       3.23       6.79      16.64
C       0.94      -6.54      16.19
C      -1.34      -0.26      27.96
C       3.66       4.64      17.38
C       1.38      -4.82      17.69
C      -0.91       0.17      25.73
C       3.16       3.70      18.29
C       0.87      -3.57      18.04
C      -1.41      -0.14      24.46
C       3.97       2.70      18.85
C       1.69      -2.58      18.63
C      -0.60      -0.13      23.31
C      -1.51       2.64      18.44
C       3.06      -2.90      18.88
C       0.78       0.25      23.47
C      -1.03       3.59      17.51
C       3.54      -4.18      18.53
C       1.26       0.59      24.75
C      -1.84       4.57      16.98
C       2.73      -5.13      17.95
C       0.45       0.55      25.86
C      -0.57       1.61      18.90
C       4.00      -1.99      19.55
C       1.72       0.37      22.34
C       0.35      13.94      12.34
C       2.64      21.27      12.15
C       4.92      17.44       5.91
C       4.12      16.06      11.63
C      -0.45      19.59      10.67
C       1.84      17.00       8.10
N       0.66      12.06      13.79
N       2.95      23.47      13.06
N       5.23      17.13       3.54
N       2.79       5.60      16.86
N       0.51      -5.76      17.12
N      -1.78       0.15      26.82
O       2.93      16.16      12.08
O      -1.64      19.93      10.36
O       0.65      16.56       7.96
O       4.54      16.86      10.70
O      -0.03      18.38      10.44
O       2.26      17.40       9.25
O       0.14      15.77      10.85
O       2.42      19.06      11.31
O       4.71      17.82       8.23
O       0.62       1.55      18.44
O      -1.67      -2.36      19.83
O       2.90       0.80      22.52
O      -0.98       0.75      19.78
O       3.60      -0.80      19.85
O       1.31       0.04      21.16
O       3.41       1.84      19.71
O       1.13      -1.40      18.95
O      -1.16      -0.44      22.13
