63

Zn       5.59       5.43       8.15
Zn       2.77       5.12       8.17
H       6.55       5.09       1.36
H       6.79       9.80       7.37
H       7.72       4.35       9.98
H       7.91       6.14       5.10
H       7.99       7.67       5.99
H       0.67       7.46       6.09
H       6.28       4.92      14.95
H       2.23       5.15       1.35
H       1.66       9.24       8.84
H       2.52       0.76       9.04
H       7.65       1.34       7.66
H       8.75       1.27       5.10
H       8.57       2.74       6.09
H       7.17       3.78       4.26
H       8.80       3.34       3.68
H       7.39       2.32       3.27
C       3.77       7.82       7.90
C       5.61       5.19       0.81
C       4.17       5.19      13.38
C       4.38       4.97       2.93
C       4.39       4.92       4.14
C       4.25       5.37      12.18
C       4.59      10.19       7.49
C       3.62       9.30       7.94
C       2.46       9.90       8.49
C       3.43       0.34       8.61
C       4.44       1.22       8.18
C       4.43       4.99       5.59
C       5.56       0.62       7.60
C       6.90       0.92       6.96
C       5.95      10.27       6.84
C      -0.04       5.69       7.19
C      -0.15       4.57       9.14
C       8.32       4.74       9.16
C       8.44       5.86       7.20
C       8.40       6.66       5.93
C       0.11       6.53       5.94
C       4.30       2.70       8.32
C       4.31       5.49      10.74
C       5.34       4.85      15.50
C       4.13       4.97      14.78
C       2.92       4.87      15.50
C       3.17       5.21       0.81
C       4.39       5.11       1.52
C       8.09       2.13       5.31
C       7.85       2.94       4.05
Br       0.61       3.64      10.58
Br       0.86       5.69       4.35
Br       1.26       5.01      14.58
Br       6.05       9.58       5.01
N       0.64       5.06       8.15
N       7.66       5.41       8.19
O       4.95       7.37       8.02
O       2.70       7.13       7.78
O       5.56       5.31       6.09
O       3.35       4.76       6.21
O       5.37       3.38       8.22
O       3.12       3.15       8.52
O       5.46       5.45      10.21
O       3.19       5.61      10.14
O       6.82       1.67       5.79
