132

Zn       5.34       6.17       8.46
Zn       2.23       2.45       8.09
Zn       2.63       4.87      10.25
Zn       4.97       3.56       6.29
H      -0.80       2.96       7.28
H       1.13      14.95       6.31
H       3.77      11.08       1.86
H      -0.31       2.13      16.78
H      14.61      -7.66      14.14
H      -3.69      -6.83      16.26
H      16.86       2.13       1.33
H       2.98       3.37      12.88
H       8.46       3.13       5.91
H       8.05       5.14       9.74
H       6.92       1.04       6.82
H       0.53       6.55       8.36
H       5.10       8.53       5.88
H       1.19      10.89       4.67
H       1.26      12.49       3.88
H       2.73      11.50       4.03
H       2.74      13.34       5.75
H       2.70      11.75       6.51
H      -3.35      -3.17      16.87
H      -2.64      -3.23      15.25
H      -2.67      -4.69      16.26
H      -0.37      -3.71      16.27
H       3.76       2.83       3.22
H       3.78       6.42       0.87
H       9.61      -6.93      16.88
H       9.70      -7.11      15.12
H       8.51      -8.04      16.05
H       3.39       9.16      15.40
H      15.22       0.70       0.14
H       3.62       5.17      14.61
H       3.95       6.86      15.03
H       2.33       6.18      15.30
H       2.33       7.62      13.25
H       0.14       2.35       5.54
H       2.01       5.94      12.81
H       3.12       5.08       4.16
H      -0.82       5.03      11.09
H       4.60      -4.79       8.48
H      -1.79      11.48       8.34
H       3.42      -0.26       9.02
C       5.84       7.06      11.24
C       3.20       8.42       8.33
C       3.68       5.79       4.76
C       4.17       0.28       8.46
C      -0.57       4.53      10.15
C       3.92       7.15       4.53
C      -1.43       3.94       9.20
C       1.82       8.37       8.05
C       1.60       2.63       3.86
C      10.19       3.72       8.28
C      11.38       3.59       8.54
C       5.38      -0.20       7.90
C      12.70       3.54       8.79
C      -5.37       3.58       8.98
C      -4.04       3.68       9.13
C       2.51       2.73      12.13
C      -2.82       3.81       9.21
C      -1.16      12.25       7.89
C       0.05      11.86       7.27
C       0.86      12.85       6.64
C       0.49      14.18       6.75
C       6.36      -4.09       7.44
C       1.57       1.69      12.33
C      -1.52      13.59       7.97
C       0.52      10.54       7.40
C       6.06      -2.72       7.62
C       5.79      -1.54       7.80
C       8.13       3.69       6.78
C       1.04       9.46       7.64
C      -0.48       1.06      16.82
C      -0.21       0.29      15.66
C      -0.50      -1.09      15.74
C      -0.93      -1.74      16.88
C       8.85       3.98       7.97
C       3.77       9.08       1.03
C       3.95      10.48       0.96
C       0.38       0.83      14.50
C       3.57       8.46       2.29
C       3.64       7.88       3.36
C       1.36       1.24      11.01
C       0.96       1.23      13.51
C      -4.70      -7.24      16.25
C      -0.52       2.64       0.44
C      17.43       2.19       0.40
C       4.71       7.55       5.64
C      11.98      -8.30      16.24
C      12.78      -8.32      15.06
C      14.04      -7.70      15.07
C       0.16       2.78       1.67
C       5.38       9.54      13.96
C       5.24       8.64      13.14
C       7.92       4.70       8.75
C       0.83       2.72       2.70
C       5.97       0.95       7.34
C       3.94       6.66      12.26
C      -0.55       3.48       8.20
C       5.04       7.56      12.28
C       2.11      12.45       5.90
C       1.81      11.80       4.54
C      -1.17      -3.23      16.86
C      -2.54      -3.60      16.27
C      10.55      -8.79      16.22
C       9.54      -7.65      16.06
C       2.78       6.62      13.21
C       3.20       6.18      14.62
C       1.50       7.04       8.39
C       3.01       2.71       4.00
C       1.16       2.48       5.19
N       5.31       6.00      10.63
N       2.79       2.87      10.82
N       6.90       4.21       6.84
N       2.07       1.93      10.12
N       6.77       4.84       8.07
N       5.15       2.01       7.52
N       4.11       5.75      11.28
N       4.94       6.49       6.43
N       0.72       3.78       8.53
N       2.60       6.39       8.85
N       3.36       2.63       5.30
N       2.21       2.48       6.04
N       3.66       7.27       8.81
N       4.31       5.40       5.90
N       0.70       4.42       9.74
N       4.06       1.60       8.20
F       7.01       7.55      10.80
F       4.03       9.46       8.16
F      -0.28      -1.84      14.62
F       0.57       0.23      10.61
