146

Zn       4.64       4.64       5.41
Zn       6.93       6.93       5.41
Zn       4.64       6.93      18.41
Zn       6.93       4.64      18.41
Zn       4.64       6.93       7.60
Zn       6.93       4.64       7.60
Zn       4.64       4.64      20.60
Zn       6.93       6.93      20.60
H       3.14       1.02       4.89
H       4.07       2.08       3.81
H       4.51       0.36       3.97
H       8.42      10.55       4.89
H       7.49       9.48       3.81
H       7.06      11.20       3.97
H       1.02       8.42      17.89
H       2.08       7.49      16.81
H       0.36       7.06      16.98
H      10.55       3.14      17.89
H       9.48       4.07      16.81
H      11.20       4.51      16.98
H       3.14      10.55       8.12
H       4.07       9.48       9.20
H       4.51      11.20       9.03
H       8.42       1.02       8.12
H       7.49       2.08       9.20
H       7.06       0.36       9.03
H       1.02       3.14      21.12
H       2.08       4.07      22.20
H       0.36       4.51      22.04
H      10.55       8.42      21.12
H       9.48       7.49      22.20
H      11.20       7.06      22.04
H       8.42      10.55      21.12
H       7.49       9.48      22.20
H       7.06      11.20      22.04
H       3.14       1.02      21.12
H       4.07       2.08      22.20
H       4.51       0.36      22.04
H      10.55       3.14       8.12
H       9.48       4.07       9.20
H      11.20       4.51       9.03
H       1.02       8.42       8.12
H       2.08       7.49       9.20
H       0.36       7.06       9.03
H       8.42       1.02      17.89
H       7.49       2.08      16.81
H       7.06       0.36      16.98
H       3.14      10.55      17.89
H       4.07       9.48      16.81
H       4.51      11.20      16.98
H      10.55       8.42       4.89
H       9.48       7.49       3.81
H      11.20       7.06       3.97
H       1.02       3.14       4.89
H       2.08       4.07       3.81
H       0.36       4.51       3.97
H       4.27       4.27       1.26
H       7.30       7.30       1.26
H       4.27       7.30      14.26
H       7.30       4.27      14.26
H       4.27       7.30      11.75
H       7.30       4.27      11.75
H       4.27       4.27      24.75
H       7.30       7.30      24.75
C       4.15       1.25       4.52
C       5.08       1.59       5.63
C       7.41      10.32       4.52
C       6.48       9.97       5.63
C       1.25       7.41      17.52
C       1.59       6.48      18.64
C      10.32       4.15      17.52
C       9.98       5.08      18.64
C       4.15      10.32       8.49
C       5.08       9.97       7.37
C       7.41       1.25       8.49
C       6.48       1.59       7.37
C       1.25       4.15      21.49
C       1.59       5.08      20.38
C      10.32       7.41      21.49
C       9.97       6.48      20.38
C       7.41      10.32      21.49
C       6.48       9.97      20.38
C       4.15       1.25      21.49
C       5.08       1.59      20.38
C      10.32       4.15       8.49
C       9.98       5.08       7.37
C       1.25       7.41       8.49
C       1.59       6.48       7.37
C       7.41       1.25      17.52
C       6.48       1.59      18.64
C       4.15      10.32      17.52
C       5.08       9.97      18.64
C      10.32       7.41       4.52
C       9.97       6.48       5.63
C       1.25       4.15       4.52
C       1.59       5.08       5.63
C       4.93       4.93       0.70
C       6.64       6.64       0.70
C       4.93       6.64      13.70
C       6.64       4.93      13.70
C       4.93       6.64      12.31
C       6.64       4.93      12.31
C       4.93       4.93      25.31
C       6.64       6.64      25.31
C       5.78       0.73       6.50
C       5.78      10.83       6.50
C       0.73       5.78      19.51
C      10.83       5.78      19.51
C       5.78      10.83      19.51
C       5.78       0.73      19.51
C      10.83       5.78       6.50
C       0.73       5.78       6.50
C       5.78       5.78       2.90
C       5.78       5.78       1.40
C       5.78       5.78      15.90
C       5.78       5.78      14.41
C       5.78       5.78      10.11
C       5.78       5.78      11.60
C       5.78       5.78      23.11
C       5.78       5.78      24.61
N       5.35       2.87       5.97
N       6.21       8.70       5.97
N       2.87       6.21      18.97
N       8.70       5.35      18.97
N       5.35       8.70       7.04
N       6.21       2.87       7.04
N       2.87       5.35      20.04
N       8.70       6.21      20.04
N       6.21       8.70      20.04
N       5.35       2.87      20.04
N       8.70       5.35       7.04
N       2.87       6.21       7.04
N       6.21       2.87      18.97
N       5.35       8.70      18.97
N       8.70       6.21       5.97
N       2.87       5.35       5.97
O       4.98       4.98       3.47
O       6.59       6.59       3.47
O       4.98       6.59      16.48
O       6.59       4.98      16.48
O       4.98       6.59       9.53
O       6.59       4.98       9.53
O       4.98       4.98      22.54
O       6.59       6.59      22.54
O       5.78       5.78       6.50
O       5.78       5.78      19.51
