200

In       7.30      16.65      16.65
In       7.30       5.55       5.55
In       7.30       5.55      16.65
In       0.00      16.65       5.55
In       3.65      16.65      16.65
In       3.65       5.55       5.55
In       3.65       5.55      16.65
In       3.65      16.65       5.55
H       3.56      16.26      20.96
H       0.43      18.32      19.73
H       2.25      19.41      20.95
H       5.47      18.08       6.98
H       3.56       5.94       1.25
H       0.43       3.89       2.48
H       2.25       2.79       1.25
H       3.56       9.85      17.04
H       0.43       8.62      14.99
H       2.25       9.85      13.89
H       5.47      18.08      15.22
H       3.56      12.35       5.16
H       0.43      13.58       7.21
H       2.25      12.36       8.31
H       5.47       4.12       6.98
H       3.74      17.04       9.85
H       6.87      14.99       8.62
H       5.06      13.89       9.85
H       3.74       5.16      12.35
H       6.87       7.21      13.58
H       5.06       8.31      12.36
H       3.74       1.25       5.94
H       6.87       2.48       3.89
H       5.06       1.25       2.79
H       1.83      15.22       4.12
H       3.74      20.96      16.26
H       6.87      19.73      18.32
H       5.06      20.95      19.41
H       1.83       6.98      18.08
H       3.74      17.04      12.35
H       6.87      14.99      13.58
H       5.06      13.89      12.36
H       3.74       5.16       9.85
H       6.87       7.21       8.62
H       5.06       8.31       9.85
H       3.74       1.25      16.26
H       6.87       2.48      18.32
H       5.06       1.25      19.41
H       1.83      15.22      18.08
H       3.74      20.96       5.94
H       6.87      19.73       3.89
H       5.06      20.95       2.79
H       1.83       6.98       4.12
H       3.56      16.26       1.25
H       0.43      18.32       2.48
H       2.25      19.41       1.25
H       3.56       5.94      20.96
H       0.43       3.89      19.73
H       2.25       2.79      20.95
H       3.56       9.85       5.16
H       0.43       8.62       7.21
H       2.25       9.85       8.31
H       3.56      12.35      17.04
H       0.43      13.58      14.99
H       2.25      12.36      13.89
H       5.47       4.12      15.22
C       5.48      16.91      19.30
C       5.52      17.11      20.79
C       4.42      16.65      21.50
C       6.63      17.69      21.48
C       0.42      18.32      20.81
C       1.44      18.93      21.50
C       5.48       5.29       2.90
C       5.52       5.09       1.42
C       4.42       5.55       0.70
C       6.63       4.51       0.72
C       0.42       3.89       1.40
C       1.44       3.28       0.70
C       5.48       8.20      16.39
C       5.52       9.69      16.20
C       4.42      10.40      16.65
C       6.63      10.38      15.61
C       0.42       9.71      14.99
C       1.44      10.40      14.38
C       5.48      14.01       5.81
C       5.52      12.52       6.01
C       4.42      11.80       5.55
C       6.63      11.83       6.59
C       0.42      12.50       7.21
C       1.44      11.81       7.82
C       1.82      16.39       8.20
C       1.79      16.20       9.69
C       2.89      16.65      10.40
C       0.67      15.61      10.38
C       6.89      14.99       9.71
C       5.86      14.38      10.40
C       1.82       5.81      14.01
C       1.79       6.01      12.52
C       2.89       5.55      11.80
C       0.67       6.59      11.83
C       6.89       7.21      12.50
C       5.86       7.82      11.81
C       1.82       2.90       5.29
C       1.79       1.42       5.09
C       2.89       0.70       5.55
C       0.67       0.72       4.51
C       6.89       1.40       3.89
C       5.86       0.70       3.28
C       1.82      19.30      16.91
C       1.79      20.79      17.11
C       2.89      21.50      16.65
C       0.67      21.48      17.69
C       6.89      20.81      18.32
C       5.86      21.50      18.93
C       1.82      16.39      14.01
C       1.79      16.20      12.52
C       2.89      16.65      11.80
C       0.67      15.61      11.83
C       6.89      14.99      12.50
C       5.86      14.38      11.81
C       1.82       5.81       8.20
C       1.79       6.01       9.69
C       2.89       5.55      10.40
C       0.67       6.59      10.38
C       6.89       7.21       9.71
C       5.86       7.82      10.40
C       1.82       2.90      16.91
C       1.79       1.42      17.11
C       2.89       0.70      16.65
C       0.67       0.72      17.69
C       6.89       1.40      18.32
C       5.86       0.70      18.93
C       1.82      19.30       5.29
C       1.79      20.79       5.09
C       2.89      21.50       5.55
C       0.67      21.48       4.51
C       6.89      20.81       3.89
C       5.87      21.50       3.28
C       5.48      16.91       2.90
C       5.52      17.11       1.42
C       4.42      16.65       0.70
C       6.63      17.69       0.72
C       0.42      18.32       1.40
C       1.44      18.93       0.70
C       5.48       5.29      19.30
C       5.52       5.09      20.79
C       4.42       5.55      21.50
C       6.63       4.51      21.48
C       0.42       3.89      20.81
C       1.44       3.28      21.50
C       5.48       8.20       5.81
C       5.52       9.69       6.01
C       4.42      10.40       5.55
C       6.63      10.38       6.59
C       0.42       9.71       7.21
C       1.44      10.40       7.82
C       5.48      14.01      16.39
C       5.52      12.52      16.20
C       4.42      11.80      16.65
C       6.63      11.83      15.61
C       0.42      12.50      14.99
C       1.44      11.81      14.38
O       4.34      16.84      18.75
O       6.61      16.78      18.71
O       4.34       5.36       3.46
O       6.61       5.42       3.50
O       4.34       7.65      16.46
O       6.61       7.61      16.53
O       4.34      14.56       5.74
O       6.61      14.60       5.68
O       2.97      16.46       7.65
O       0.70      16.52       7.61
O       2.97       5.74      14.56
O       0.70       5.68      14.60
O       2.97       3.46       5.36
O       0.70       3.50       5.42
O       2.97      18.75      16.84
O       0.70      18.71      16.78
O       2.97      16.46      14.56
O       0.70      16.52      14.60
O       2.97       5.74       7.64
O       0.70       5.68       7.61
O       2.97       3.46      16.84
O       0.70       3.50      16.78
O       2.97      18.75       5.36
O       0.70      18.71       5.42
O       4.34      16.84       3.46
O       6.61      16.78       3.50
O       4.34       5.36      18.75
O       6.61       5.42      18.71
O       4.34       7.64       5.74
O       6.61       7.61       5.68
O       4.34      14.56      16.46
O       6.61      14.60      16.53
O       5.47      17.40      15.91
O       5.47       4.81       6.30
O       5.47       4.81      15.91
O       5.47      17.40       6.30
O       1.83      15.91       4.81
O       1.83       6.30      17.40
O       1.83       6.30       4.81
O       1.83      15.91      17.40
