156

Al       5.15       4.07       4.83
Al       0.68      12.36      14.51
Al       1.78       4.19       4.85
Al       4.04      12.30      14.56
H       1.71       6.52       1.43
H       3.71       9.18      17.45
H       4.90       1.92       8.44
H       0.43      15.37      11.62
H       1.11       5.22      19.20
H       3.97       7.50      19.22
H       4.81       0.19      10.18
H       0.63      17.20       9.98
H       4.44      -1.56      17.87
H       1.70      18.38       1.15
H       0.55       6.95      10.48
H       5.32       9.43       8.98
H       6.23      11.97       2.01
H       5.50      11.40       3.57
H       4.51      12.30       2.37
H       2.49       7.18      16.58
H       1.37       5.88      17.13
H       3.05       5.97      17.78
H       2.68      15.89       7.91
H       2.02      16.28       6.27
H       1.03      15.37       7.46
H      -0.28      -1.92      12.69
H       5.33      -0.57      12.28
H       0.25      -0.66      11.53
H       4.64       7.31       4.23
H       2.05       9.55      16.10
H       0.90       0.76       5.75
H       5.46      15.42      13.25
H       5.43       3.58       1.35
H       0.31      12.95      18.03
H       0.52       6.23       7.61
H       5.33      10.16      11.94
H       3.89      -0.14       2.17
H       2.46      18.35       3.29
H       3.93       0.18       3.93
H       4.35      -1.26      15.61
H       2.99      -2.26      16.22
H       3.01      17.13      14.51
H       0.37       8.93       7.81
H       5.97       9.86       6.75
H       0.45       8.73       6.03
H       1.23       8.66      14.30
H       0.83       6.98      13.79
H      -0.47       8.10      14.34
H       3.40       3.73       3.15
H       2.36      12.02      16.30
H       0.12       3.73       6.58
H       5.71      12.80      12.83
C       3.56       5.80       6.56
C       2.31      10.60      12.84
C       0.12       2.58       3.01
C       5.76      14.00      16.25
C       3.38       2.20       6.30
C       2.42      14.22      13.05
C       0.11       6.09       3.46
C       5.67      10.47      16.09
C       5.82       9.38       1.74
C       0.51       7.90      18.37
C       2.52      -1.12       8.02
C       3.88      16.99      10.95
C       5.82       8.33       2.69
C       0.37       8.99      17.50
C       2.47      -0.06       7.08
C       3.76      15.90      11.83
C       0.05       7.29       2.55
C       5.80       9.41      17.11
C       3.34       1.04       7.24
C       2.50      15.35      12.10
C       0.97       7.31       1.50
C       4.69       8.82      17.72
C       4.22       1.08       8.33
C       1.38      15.85      11.45
C       0.90       8.31       0.54
C       4.85       7.87      18.70
C       4.18       0.08       9.30
C       1.51      16.86      10.52
C      -0.03       9.36       0.61
C      -0.60       7.36      19.06
C       3.33      -1.03       9.18
C       2.75      17.46      10.23
C       0.29       1.59       1.89
C       5.70      15.09      17.29
C       3.54       6.83       7.64
C       2.37       9.51      11.81
C       5.15      -2.37      18.02
C       0.95      19.16       1.05
C       1.35       7.68      10.57
C       4.54       8.68       8.87
C       4.84      16.20      17.04
C       1.35       0.64       1.99
C       1.32       8.55      11.63
C       4.59       7.79       7.80
C      -0.26      15.03      18.45
C       6.18       1.61       0.76
C       3.45       9.52      10.93
C       2.47       6.81       8.52
C      -0.36      16.08      19.43
C       5.87      -2.42      19.23
C       3.49       8.64       9.81
C       2.42       7.70       9.63
C       5.33      11.59       2.50
C       2.19       6.55      17.44
C       1.78      16.15       7.33
C       6.11      -1.25      11.88
C       4.85       8.32       3.83
C       1.55       9.80      17.07
C       1.49      -0.16       5.95
C       4.97      15.13      12.29
C       5.24       2.75       0.63
C       0.58      13.82      18.67
C       1.30       5.87       8.31
C       4.63      10.44      11.13
C       3.31      -0.17       3.10
C       3.85      -2.24      15.53
C      -0.22       8.90       6.88
C       0.48       8.02      13.80
O       2.27       2.60       5.83
O       3.52      13.87      13.60
O       5.76       5.42       3.61
O       0.06      11.04      15.76
O       4.66       5.46       6.05
O       1.18      10.93      13.31
O       1.17       3.23       3.32
O       4.68      13.39      16.02
O       4.53       2.71       6.06
O       1.29      13.68      13.27
O       1.26       5.81       3.94
O       4.53      10.74      15.60
O       5.69       2.69       3.56
O       0.18      13.79      15.71
O       2.42       5.30       6.26
O       3.42      11.15      13.14
O       3.47       4.18       4.01
O       2.35      12.25      15.35
O       0.11       4.03       5.66
O       5.71      12.39      13.72
O       4.89      10.37       1.86
O       1.78       7.37      18.56
O       1.18      17.36       7.84
O       5.12      17.56      10.75
O       4.33       9.31       4.32
O       2.01      10.66      17.80
O       0.82      18.35       5.30
O       5.42      14.26      11.56
O       3.87      -0.17      19.31
O       1.49      13.70      19.48
O       1.15       4.83       8.94
O       4.87      11.37      10.37
O       2.21       0.76       3.03
O       4.27      16.23      15.81
O       5.57       7.81       6.87
O       0.22       8.47      12.46
