118

Al       0.74      11.56       9.30
Al       4.19      11.53       9.31
Al       4.41      16.70       0.01
Al       0.90       0.02       0.00
H       3.89       9.47      12.93
H       0.39      13.59       5.67
H       4.03       8.28      15.14
H       0.52      14.80       3.48
H       2.31       7.62      14.46
H       5.70      15.43       4.09
H       2.32       9.19      15.33
H       5.71      13.85       3.24
H       2.17       8.86      12.25
H       5.58      14.22       6.32
H       2.17      10.41      13.12
H       5.58      12.65       5.47
H       0.85       8.99       6.14
H       0.68      14.18      12.49
H       2.96       5.50       6.76
H       5.60      17.49      11.77
H       2.98       3.68       5.14
H       5.69      19.29      13.40
H       4.10       2.47       3.26
H       4.67      20.53      15.32
H       1.04       3.75       1.86
H       0.80      19.39      16.80
H       2.07       5.84       2.74
H       6.59      17.35      15.93
H       2.00       7.76       4.31
H       6.54      15.45      14.35
H       3.44       6.52       8.43
H       4.09       8.06       9.01
H       2.87       8.04       7.73
H       5.03      16.49      10.10
H       5.57      14.95      10.79
H       4.32      14.98       9.54
H       2.43       9.78       9.32
H       5.92      13.31       9.19
H       2.72       8.13      18.37
H       6.16      14.96       0.24
C       2.50      13.48      10.72
C       5.91       9.61       7.88
C       2.44      12.75       7.24
C       5.95      10.33      11.37
C       0.29       9.30      13.28
C       3.69      13.76       5.30
C       6.00       9.63      12.67
C       2.50      13.44       5.92
C       4.85       9.23      13.38
C       1.34      13.83       5.22
C       4.92       8.57      14.60
C       1.41      14.49       4.00
C       6.15       8.25      15.21
C       2.63      14.81       3.38
C       0.36       8.63      14.50
C       3.76      14.41       4.07
C       1.86       8.62      14.50
C       5.26      14.42       4.06
C       1.77       9.39      13.12
C       5.18      13.67       5.45
C       0.05       8.25       6.13
C       1.50      14.89      12.48
C       5.90       8.39       7.02
C       2.55      14.71      11.57
C       4.85       7.45       7.08
C       3.63      15.61      11.49
C       4.87       6.37       6.15
C       3.68      16.69      12.42
C       5.95       6.24       5.22
C       2.62      16.86      13.38
C       0.11       7.19       5.22
C       1.52      15.95      13.40
C       3.81       5.40       6.09
C       4.77      17.61      12.46
C       3.82       4.38       5.18
C       4.83      18.63      13.37
C       4.90       4.21       4.26
C       3.78      18.82      14.33
C       5.98       5.15       4.30
C       2.66      17.93      14.31
C       0.17       5.00       3.40
C       1.59      18.12      15.23
C       1.23       5.97       3.43
C       0.49      17.19      15.23
C       1.19       7.02       4.29
C       0.46      16.15      14.35
C       4.93       3.17       3.32
C       3.82      19.86      15.28
C       6.03       3.01       2.47
C       2.74      20.06      16.15
C       0.19       3.90       2.52
C       1.63      19.21      16.12
C       2.65      15.52       2.07
C       6.18       7.56      16.53
C       2.77      21.20      17.12
C       6.04       1.88       1.49
C       3.76       7.52       8.12
C       4.69      15.50      10.43
O       3.57      12.54       7.80
O       0.17      10.67      10.89
O       1.35      13.06      10.34
O       4.78      10.13       8.16
O       1.29      12.44       7.69
O       4.80      10.53      10.84
O       0.14      10.05       8.26
O       3.62      12.92      10.47
O       2.46      10.74       9.45
O       5.92      12.34       9.15
O       1.65      21.59      17.58
O       4.91       1.38       1.20
O       3.79      15.69       1.53
O       0.42       7.25      16.98
O       3.92      21.67      17.42
O       0.26       1.52       1.02
O       5.06       7.36      17.10
O       1.52      15.87       1.61
O       2.71       7.16      18.44
O       6.14      15.92       0.16
