98

Zn      -1.37       0.86      10.93
Zn       1.38      -1.15      10.26
Zn       6.69       6.39       0.92
Zn       3.56       7.87       2.01
H      -5.11       7.41      10.50
H      -1.08      12.80       0.19
H       7.88       1.10       0.38
H      -2.52       6.29      10.73
H       4.91      10.56       2.89
H       5.49       4.62       4.96
C       0.97       2.69      10.84
C       1.26       4.90       0.10
C       5.29      -2.36      11.57
C       1.70      11.32       0.37
C       5.34       2.62       0.05
C       6.43      -0.44       1.42
C       4.99       0.18       1.29
C       0.19      -0.88       7.56
C       6.96       0.52       0.32
C      -0.15      13.37       0.21
C       5.51       1.17       0.18
C       1.30      12.72       0.34
C      -4.59       7.20      11.44
C      -3.16       6.58      11.57
C      -2.57      -1.25       5.26
C       3.63       3.41       8.63
C      -1.36      -0.71       5.53
C       3.14       3.67       9.87
C      11.99      -2.07       4.11
C       4.10       4.36       7.64
C       7.61       8.73       2.51
C       3.12       6.88       4.93
C       7.70      10.93       3.88
C       7.08       9.94       3.02
C       3.33       5.21       6.91
C      12.42       4.00       0.26
C      -1.16       4.50       0.62
C       6.73      -2.51      11.65
C       0.00       4.19       0.01
C       3.73       5.84       5.67
C       4.40      -2.19      10.48
C      -3.02      -1.63      11.37
C       2.12      10.49       1.42
C       5.51       3.63       1.00
C       9.45       5.12       0.32
C       1.91       5.46       1.21
C      -3.04       3.34      11.62
C       0.26      -3.75      11.22
C       5.71       9.85       2.67
C       4.77       5.41       4.80
C       2.71       1.40      11.03
C      -1.50       0.47       7.86
C       2.37       2.68      10.63
C      -0.91      -0.33       6.87
N       0.53       1.51      11.30
N      -2.08      -0.77      11.82
N       3.19      -1.79      10.91
N       2.57       9.30       1.01
N       5.50       4.86       0.47
N       3.26      -1.66      12.29
N       2.86       6.34       0.86
N       0.22      -0.45       8.83
N      -2.51       2.16      11.96
N       0.36      -2.44      11.44
N       5.45       8.70       2.05
N       4.79       6.12       3.67
N       1.63       0.66      11.40
N      -0.85       0.40       9.03
N       6.62       8.00       1.97
N       3.76       7.03       3.76
Cl      -0.08       3.97      10.50
Cl       3.25       5.26      10.54
Cl      -0.18      -0.62       4.28
Cl      -5.88      10.38       4.84
Cl       1.69       5.42       7.43
Cl      11.70       2.80       1.29
Cl      -1.21       5.77       1.80
Cl       1.37      -1.98       7.04
Cl       9.20       8.16       2.44
Cl       1.82       7.92       5.30
Cl       4.71      -2.41       8.83
Cl      -3.28      -1.85       9.71
Cl      11.07      -1.24       6.45
Cl       3.60       1.76       8.02
F       7.09      -0.67       2.60
F      -5.00      -3.92      11.39
F       7.40      -1.69      10.78
F       2.13      10.75       2.74
F       5.73       3.46       2.31
F       9.79       5.18       1.60
F       1.69       5.20       2.50
F       4.18       0.53       2.34
F      -3.25       3.61      10.33
F       0.12      -4.19       9.96
F       3.94       0.89      11.07
F      -2.57       1.26       7.76
F      10.91      -1.64       3.38
F       5.40       4.14       7.25
