168

Al      11.49       8.85      14.26
Al      13.21       6.15      14.20
Al      14.69       8.75      14.21
Al       4.83       2.91       0.05
Al       6.58       5.61       0.05
Al       8.04       3.00       0.06
H       4.64       7.85      21.83
H       8.26       6.22       8.23
H       8.16       1.28       8.26
H       3.79       4.06       8.30
H       5.56       6.06      19.83
H       5.23       1.88      19.95
H       9.07       3.65      20.07
H      12.43       5.70       5.69
H      11.99       9.90       5.82
H      15.95       8.13       5.93
H      15.79       8.91      21.22
H       4.32       0.04      21.92
H      14.54       8.15      20.40
H      12.35       8.82      21.25
H      12.13       9.37      19.69
H      13.06       6.05      21.58
H      12.79       5.69      19.98
H       9.12       2.88       7.14
H       7.92       3.62       6.24
H       5.72       2.97       7.10
H       5.48       2.42       5.55
H       6.42       5.73       7.43
H      11.00       3.76      22.16
H       6.15       6.06       5.83
H       2.30       3.80      20.35
H       8.99       0.59      20.45
H       8.50       7.60      20.37
H       9.16       7.96       6.18
H      15.77      11.13       6.29
H      15.36       4.19       6.22
H       4.88       3.87      21.52
H       7.38       2.60      21.68
H       7.36       5.32      21.62
H      11.51       3.92       7.70
H      11.75       7.90       7.35
H      14.14       9.16       7.54
H      14.23       6.47       7.47
H       4.37       0.05       7.79
H      17.87       8.02       8.02
H      14.89       5.56      22.37
H      14.82      10.46      22.42
H      10.44       7.72      22.45
H       9.70      10.16      13.51
H       2.92       1.87       0.91
C      13.38      10.31      16.08
C      10.06       5.86       5.59
C      13.54      11.68       5.69
C      16.87       5.96       5.77
C      15.80       5.69      21.77
C      14.20      11.16      21.85
C      10.13       6.82      21.91
C       9.17       6.09       7.63
C       7.52       0.60       7.69
C       3.49       4.96       7.76
C      16.19       6.95      20.88
C      11.23       6.47      16.10
C      13.00      10.75      20.92
C      11.09       5.89      21.08
C       9.56       4.82       6.74
C       6.32       1.02       6.77
C       4.45       5.88       6.93
C       3.96       5.63      23.82
C       6.52       0.80      23.92
C       9.23       5.44      23.99
C      10.84       6.17       9.67
C      13.32      10.99       9.77
C      15.39       6.65      16.00
C      16.09       6.34       9.84
C      16.37       6.05      18.38
C      13.53      11.45      18.47
C      10.35       5.97      18.55
C       9.73       5.69       4.23
C       6.82       0.30       4.32
C       3.71       5.81       4.41
C      13.35      10.25      12.32
C      11.30       6.59      12.25
C      15.31       6.66      12.35
C       6.71       1.43       1.93
C       6.49       1.56      26.45
C       4.44       5.23      26.40
C       8.46       5.12      26.49
C       4.63       5.95      20.40
C       5.86       1.19      20.52
C       9.37       4.55      20.62
C      11.50       5.81       6.26
C      12.63      10.59       6.38
C      16.25       7.23       6.47
C       4.12       6.95      21.49
C       4.60       5.29       1.96
C       5.35       0.16      21.58
C      10.45       4.61      21.75
C      10.99       4.82       7.36
C      12.15      11.63       7.44
C      17.32       7.17       7.61
C       4.12       5.52      25.03
C       6.52       1.04      25.11
C       8.97       5.36      25.18
C      10.99       6.29      10.88
C      13.35      10.76      10.97
C       8.74       5.10       1.85
C      15.82       6.42      11.03
C      15.99       6.28      17.24
C      13.49      11.02      17.33
C      10.71       6.12      17.40
C       9.35       5.47       3.09
C       6.79       0.73       3.18
C       4.08       5.65       3.25
C       4.25       4.74      21.31
C       7.06       1.58      21.44
C       8.43       5.48      21.44
C      16.70       5.89      19.73
C      11.12       7.03       7.15
C      13.83      10.18       7.29
C      15.29       6.30       7.29
C       3.74       5.74      22.43
C       6.56       0.54      22.53
C       9.51       5.55      22.61
C      10.61       6.04       8.29
C      13.35      11.23       8.38
C      16.37       6.23       8.46
C       2.82       4.70      20.69
C       6.76       0.08      19.83
C       7.95       0.47      20.79
C       9.06       6.75      20.78
C       9.68       7.06       6.53
C      14.74      11.27       6.63
C      15.92       5.03       6.63
C      10.00       5.82      19.92
N      15.54       8.14      20.61
N      12.73       9.43      20.52
N      12.44       6.21      20.79
N       8.91       3.62       6.48
N       6.07       2.35       6.37
N       5.80       5.55       6.64
O      10.87       7.57      15.61
O       5.57       1.80       1.54
O       5.41       6.12       1.41
O       9.00       3.93       1.40
O      10.97       7.73      12.69
O      14.47       5.81      12.81
O      14.51       9.96      12.80
O       4.07       4.12      26.86
O       7.64       5.98      26.98
O       7.63       1.80      26.99
O      12.24      10.09      12.89
O      14.60       5.81      15.44
O      11.95       5.69      12.91
O      15.68       7.74      12.93
O       5.36       1.78      26.96
O       5.12       6.13      27.04
O       8.81       4.03      27.06
O      13.14       7.91      14.21
O       6.50       3.85       0.06
O      14.49      10.11      15.44
O       4.24       4.17       1.49
O       7.94       5.94       1.31
O       7.83       1.67       1.34
O      12.23       9.91      15.74
O      12.07       5.63      15.57
O      15.64       7.83      15.56
O       9.95       9.68      14.31
O       3.30       2.07       0.04
