88

Zn      11.44       6.33       6.90
Zn       8.67       6.18       7.64
H      11.04       6.65       2.57
H      15.19       9.15       5.03
H       6.97       6.52       3.87
H       7.43       4.41       9.47
H      15.83       4.65       9.20
H       5.16       3.70      10.28
H       6.84       7.66       6.33
H       8.50       6.15      14.42
H       9.07       6.14      11.97
H      13.17       6.07      10.73
H      15.01       6.08      12.41
H       5.51       1.88       6.45
H      11.59       6.71       0.16
H      13.01       4.54       7.87
H       5.06       6.72       3.43
H       7.30       9.68       8.42
H       4.34      -0.24       6.91
H      11.92      10.48       7.07
H      12.29       2.13       6.70
H      13.56      11.48       6.76
H       7.61       3.18       6.40
H      12.84       8.36       5.51
H       4.92       8.88       5.35
C      10.17       3.69       6.94
C      10.12       6.11      12.24
C      11.08       6.10      11.22
C      10.65       6.12       9.78
C      12.44       6.08      11.54
C       8.56      12.40       6.95
C       9.83      10.35       7.25
C      11.37       1.55       6.69
C      11.41       0.14       6.68
C      13.50      12.57       6.73
C       8.98       0.05       6.73
C       9.57       6.69       0.97
C       8.92       1.47       6.68
C      11.01      12.45       6.84
C       6.49      -0.03       6.78
C       9.90       8.86       7.37
C       6.48       1.38       6.57
C       7.64       2.11       6.54
C      11.00      11.06       7.05
C       8.58      11.03       7.22
C      10.14       2.20       6.73
C      15.01       8.27       5.65
C       5.79       6.73       1.35
C       6.52       4.82       9.03
C       5.25       4.42       9.46
C       4.13       4.94       8.84
C       4.27       5.85       7.77
C       9.46       6.47       4.76
C       5.60       6.28       7.46
C      15.84       6.44       7.04
C      16.10       7.58       6.22
C       4.76       8.01       5.98
C       5.81       7.35       6.53
C       5.42       6.77       0.03
C      14.49       5.98       7.10
C      13.72       7.83       5.89
C       9.98       6.65       2.31
C       9.03       6.58       3.33
C       7.66       6.59       3.03
C       7.20       6.68       1.71
C       8.17       6.70       0.66
C      14.06       4.60       7.50
C       4.73       6.78       2.37
C       7.29      10.38       7.55
C      10.52       6.09      13.59
C      11.91       6.07      13.92
C      12.88       6.07      12.87
C      14.27       6.07      13.22
C      14.67       6.05      14.52
I      16.51      12.28       6.66
N      13.48       6.69       6.58
N       6.69       5.74       8.08
O      11.16       4.34       6.46
O       3.53       6.89       2.13
O       6.24      10.64       6.97
O       9.23       4.19       7.63
O      11.57       5.94       8.91
O       9.42       6.32       9.54
O      11.05       8.32       7.42
O       8.79       8.23       7.39
O      10.66       6.78       5.05
O       8.58       6.06       5.58
O      14.75       3.60       7.36
