201

Al       7.77       4.43      13.98
Al       9.32       7.23      14.00
Al      10.97       4.73      13.95
Al      17.28      10.21       0.41
Al      14.08      10.26       0.46
Al      15.46       7.59       0.48
H       5.43       5.27      22.42
H       6.85       9.31      19.93
H      10.43       8.71      10.49
H      13.25       5.58       6.21
H      13.69       5.87       3.78
H      10.86       9.00       8.07
H      12.12       9.74       6.47
H      12.46       9.97       4.02
H      13.91       5.95       8.27
H      11.21       9.31      22.39
H      13.40       5.62      10.68
H      11.39       3.94      10.14
H       7.41       1.61       6.42
H       7.29       1.00       4.01
H      11.29       3.45       7.70
H      11.70       1.84       6.11
H      11.55       1.27       3.69
H       8.08       0.68       8.42
H       5.88       5.10      10.65
H      13.92       5.95      22.36
H       5.40       9.61       6.77
H      17.54       9.88       4.35
H       5.18       5.38       8.27
H       6.04       5.39       6.14
H       7.14       9.22       8.17
H       7.79       8.94      10.55
H      11.95       1.60      19.88
H      11.85       1.30      22.35
H       7.66       2.10      19.78
H       5.71       5.17      19.94
H       5.59      -0.00      20.61
H       4.21       1.63      19.37
H       2.49       0.85      17.74
H       8.22       9.55      17.42
H       9.56       7.92      18.69
H      17.98       9.67      24.18
H      12.68       0.51      25.35
H       1.86       1.92      24.34
H       2.88       1.22      22.16
H       8.32      10.26      21.11
H       9.42       0.49      12.50
H      13.97      10.45      14.03
H      11.55      10.26      13.47
H       4.59       0.14      11.37
H       6.14       1.34       9.85
H       5.09       3.86       4.74
H       6.80       4.17       4.34
H       6.34       3.61       1.93
H       5.89       2.24       2.97
H       4.63       3.32       2.32
H      12.40       4.01      20.00
H      13.76       4.03      21.16
H       2.72       3.52      19.27
H       1.50       2.25      19.46
H      13.98       3.44      18.14
H       7.60       0.38      23.86
H      12.95      10.88      22.38
H       4.80       1.12      22.86
H       5.15       0.00      24.20
H       5.57       1.72      24.35
H       6.14       2.93      14.72
H       0.34       0.44       1.04
C       7.39       6.70      15.93
C      13.26       6.63      21.83
C      13.09       6.51      20.45
C      12.27       7.42      19.74
C      12.60       7.66      22.53
C      12.84       7.82      23.92
C      12.13       7.27      18.34
C      13.12       7.96      25.10
C       9.88       2.46      17.10
C      11.00       1.65      20.40
C      10.94       1.47      21.77
C      11.47       6.83      15.83
C       8.51       1.72      21.72
C       8.58       1.93      20.34
C       9.82       1.90      19.67
C       9.71       1.52      22.46
C       9.69       1.34      23.86
C       9.87       2.17      18.29
C       9.66       1.12      25.06
C       6.86       7.03      17.23
C       5.89       6.09      20.49
C       5.74       6.15      21.86
C       9.79       3.05      15.80
C       6.43       8.51      21.89
C       6.55       8.43      20.50
C       6.31       7.24      19.79
C       6.01       7.34      22.58
C       5.85       7.31      23.98
C       6.57       7.17      18.40
C       5.65       7.29      25.19
C      11.88       7.14      10.73
C      11.19       8.12       9.99
C      11.45       8.28       8.64
C       7.36       6.76      12.12
C      12.41       7.49       7.98
C      13.13       6.55       8.74
C      12.86       6.37      10.10
C      13.09       6.56       5.74
C      13.32       6.70       4.38
C      12.62       9.01       4.52
C      12.42       8.87       5.88
C      12.65       7.64       6.53
C      13.08       7.93       3.75
C       9.75       2.64      10.63
C      11.46       6.84      12.12
C      10.67       3.22       9.74
C      10.62       2.94       8.38
C       9.65       2.05       7.88
C       8.77       1.43       8.78
C       8.80       1.71      10.16
C       8.32       1.53       5.83
C       8.25       1.20       4.48
C      10.65       1.37       4.30
C      10.73       1.69       5.65
C       9.57       1.76       6.44
C       9.69       3.20      12.01
C       9.41       1.11       3.70
C       6.87       7.00      10.74
C       6.14       6.00      10.09
C       5.77       6.15       8.76
C       6.12       7.31       8.05
C       6.84       8.32       8.71
C       7.21       8.17      10.04
C       5.44       8.75       6.11
C       5.15       8.90       4.76
C       5.42       6.52       4.40
C      11.96       7.12      17.14
C       5.74       6.37       5.76
C       5.75       7.48       6.62
C       5.12       7.80       3.89
C       9.70       0.48      26.34
C      13.66       8.22      26.40
C       5.16       7.66      26.49
C       9.35       0.61       2.31
C      13.44       8.15       2.33
C       4.74       8.07       2.48
C      11.58       8.45      20.45
C      11.75       8.55      21.83
C      10.72       9.42      19.73
C      10.91      10.80      19.92
C       4.05       0.57      19.22
C       3.08       0.13      18.31
C       8.97       9.91      18.12
C       9.74       8.98      18.84
C       6.79       9.78      22.57
C       6.17      10.22      23.75
C       0.51       0.23      24.40
C       1.52       1.01      23.84
C       2.10       0.62      22.62
C       7.80      10.58      22.01
C       7.88       0.99      11.07
C       8.36       0.41      12.26
C      13.59      10.89      13.11
C      12.23      10.78      12.80
C       5.65       0.20      11.62
C       6.52       0.87      10.76
C       5.77       4.17       3.94
C       5.65       3.28       2.72
C      13.49       4.19      20.11
C      14.29       3.30      19.19
C       6.87       0.59      23.07
C       5.52       0.88      23.65
O       8.64       3.24      15.33
O      10.63       7.64      12.69
O      11.88       5.75      12.65
O      10.81       3.46      12.59
O       9.38       5.47      13.99
O       5.55       8.77      26.96
O      10.82       0.01      26.69
O       8.59       0.38      26.99
O      13.37       9.35      26.94
O      14.44       7.34      26.90
O       4.30       6.86      27.03
O       7.19       5.52      15.53
O       5.10       9.18       2.00
O      10.44       0.40       1.69
O       8.17       0.35       1.83
O      13.12       9.26       1.78
O      14.12       7.23       1.74
O       4.01       7.20       1.86
O      15.58       9.35       0.45
O       8.06       7.62      15.31
O      10.61       7.64      15.33
O      11.86       5.74      15.29
O      10.91       3.39      15.24
O       8.55       3.46      12.47
O       7.05       5.67      12.68
O       8.13       7.66      12.65
O       5.43       5.50       3.51
O      13.75       5.56      19.72
O       7.28       1.76      22.30
O       6.29       3.49      13.95
O       6.20      11.02       0.29
