200

Al       1.10      17.26      15.58
Al       4.48      17.28      15.53
Al       5.09       6.50      31.09
Al       2.05      34.42      31.04
H       4.41      20.44      12.72
H       1.99      28.56      22.13
H       1.93      32.18      27.54
H       5.89      10.68       7.47
H       0.95      13.66      13.60
H       4.92       4.12       5.04
H       4.85       2.33       3.31
H       1.15       5.62       3.56
H       4.81      15.77      19.20
H       1.12      12.75      20.58
H       2.53      18.95      12.57
H       4.33      22.07      24.01
H       7.15      20.98      15.61
H       3.40      21.08      20.79
H       6.26       5.88       7.35
H       0.29       7.38      11.41
H       5.82       9.02       4.30
H       4.23      16.68      11.79
H       0.74      14.13      17.16
H       0.83       8.87      29.18
H       4.07      25.87       2.06
H       4.43      24.46       6.94
H       2.79      19.04      15.76
H       6.19      15.54      15.38
H       3.83      32.78      30.73
H       6.55       1.66       0.37
C       2.81      15.55      13.89
C       2.79      15.86      17.49
C       6.14      19.03      17.18
C       6.25      18.68      13.60
C       0.61      19.38      11.52
C       0.64      20.13      10.34
C       6.44      21.05      10.03
C       5.35      21.16      10.91
C       5.26      20.36      12.05
C       6.31      19.49      12.35
C       6.65      23.37       6.73
C       6.52      21.89       8.82
C       1.10      24.54       4.91
C       1.12      25.61       4.00
C       6.76      25.89       3.26
C       5.54      25.38       3.73
C       5.52      24.81       5.04
C       6.70      24.22       5.52
C       6.47      22.86      22.38
C       1.15      24.09      20.95
C       1.00      25.30      21.79
C       6.93      25.24      22.90
C       6.24      24.05      23.24
C       1.70      26.49      21.55
C       1.48      27.63      22.36
C       0.63      27.57      23.44
C       6.76      26.37      23.75
C       5.85      26.33      24.83
C       5.19      25.14      25.14
C       5.44      23.96      24.38
C       7.22      28.78      24.27
C       5.59      27.63      25.51
C       6.21      29.31      27.90
C       6.19      30.38      28.81
C       7.05      31.48      28.62
C       1.16      31.42      27.59
C       1.14      30.40      26.65
C       6.94      29.41      26.67
C       7.07      22.40      18.64
C       6.99      21.28      17.81
C       6.15      20.19      18.12
C       5.32      20.30      19.24
C       5.45      21.39      20.14
C       6.50      22.34      19.95
C       4.10       6.93       5.38
C       2.01       5.97       6.36
C       1.99       7.06       7.36
C       3.02       8.03       7.35
C       4.05       8.01       6.38
C       0.99       7.11       8.35
C       1.09       8.05       9.42
C       2.09       9.00       9.41
C       3.03       9.04       8.35
C       4.08       9.99       8.38
C       5.08       9.95       7.42
C       5.06       8.98       6.40
C       2.30       9.94      10.54
C       4.14      11.00       9.46
C       3.51      13.56      10.75
C       3.64      14.55      11.73
C       2.75      14.53      12.82
C       1.74      13.58      12.86
C       1.70      12.53      11.95
C       2.73      12.37      10.97
C       4.08       4.05       4.35
C       4.04       3.05       3.39
C       2.96       2.93       2.50
C       1.91       3.87       2.57
C       1.96       4.89       3.52
C       3.03       4.97       4.40
C       4.01      15.11      19.51
C       4.12      14.37      20.69
C       3.08      13.51      21.09
C       1.93      13.42      20.29
C       1.81      14.13      19.10
C       2.86      15.00      18.71
C       3.24      11.18      24.38
C       3.16      12.68      22.30
C       4.48      10.13      26.30
C       4.54       9.03      27.19
C       3.35       8.65      27.84
C       2.11       9.14      27.35
C       2.14       9.66      26.03
C       3.28      10.32      25.58
C       3.37       7.80      29.08
C       3.01       1.79       1.53
C       6.82      26.69       1.98
C       7.10      32.65      29.53
C       1.79      18.50      11.87
C       4.86      22.63      24.80
C       0.94      21.22      16.51
C       4.30      21.70      20.99
C       6.60       6.25       8.33
C       6.88       8.03      10.54
C       6.14       9.05       5.36
C       4.64      15.67      11.58
C       0.64      13.84      18.23
C       1.08       9.57      28.38
C       4.42      25.08       2.74
C       4.57      25.20       6.13
N       5.62      21.66       7.84
N       5.69      22.42       6.76
N       0.71      23.62       7.72
N       0.65      22.85       8.80
N       6.81      23.23      20.98
N       6.78      28.47      25.62
N       3.03       6.02       5.38
N       2.90      11.21      10.18
N       2.15      12.80      23.20
N       2.21      12.04      24.28
N       4.22      11.02      23.46
N       4.19      11.80      22.40
Cl       4.06      25.07      26.43
Cl       5.51      27.83      28.41
Cl       5.23      30.26      30.23
Cl       2.52      30.33      25.62
Cl       0.82      23.87      17.94
Cl       4.19      19.05      19.62
Cl       1.95      19.93       9.23
Cl       4.08      13.96       9.17
Cl       0.26      11.60      11.99
Cl       4.13      22.35      10.63
Cl       0.56       3.89       1.49
Cl       5.51      14.58      21.67
Cl       5.72      11.28      26.11
Cl       5.94       8.07      27.31
Cl       0.89       9.36      24.89
Cl       2.48      23.61       5.28
Cl       2.46      26.65       3.92
Cl       2.81      26.67      20.25
O       3.89      16.10      16.91
O       1.71      15.85      14.48
O       0.55      18.27      14.04
O       1.64      16.28      17.15
O       0.47      18.68      16.74
O       3.95      16.05      14.18
O       2.78      18.11      15.48
O       5.02      18.56      16.85
O       5.11      18.49      14.14
O       6.20      16.48      15.62
O       6.58      21.71      22.77
O       2.14      23.80      20.30
O       7.33      29.91      23.84
O       4.49      28.01      25.85
O       5.05       6.79       4.61
O       1.22       5.03       6.37
O       2.04       9.63      11.69
O       5.17      11.59       9.73
O       1.91       1.31       1.11
O       4.48       7.62      29.67
O       6.00      33.17      29.89
O       4.18       1.38       1.22
O       5.70      27.11       1.54
O       2.25       7.32      29.46
O       3.44      27.20       0.07
O       1.13      26.87       1.43
O       1.44      33.06      29.86
O       6.82       7.26      30.98
O       1.97      17.39      11.38
O       4.97      22.23      25.94
O       2.14      21.39      16.43
O       4.22      22.63      21.80
O       5.98       6.01       9.36
O       5.89       8.74      10.50
O       0.49       9.21       5.67
O       5.80      15.49      11.27
O       6.46      13.26      18.63
O       0.73      10.74      28.38
O       4.06      23.92       2.65
O       4.15      26.34       6.23
