86

Al       4.10      29.17      25.26
Al       0.00      14.58      16.84
C       2.05      30.94      24.23
C       2.05      14.58       2.05
C       2.05      27.39      24.23
C       2.06      14.58      14.79
C       2.06      16.36      17.86
C       2.06      12.81      17.87
C       2.05      14.58      13.27
C       1.60      15.71      12.57
C       1.59      15.71      11.17
C       2.05      14.58      10.44
C       2.52      13.46      11.16
C       2.50      13.46      12.56
C       2.05      14.58       9.03
C       2.05      14.58       7.81
C       2.05      14.58       6.40
C       2.52      15.71       5.67
C       2.50      15.71       4.27
C       2.05      14.58       3.57
C       1.60      13.46       4.27
C       1.59      13.46       5.67
C       2.06      17.67      18.62
C       1.60      17.72      19.95
C       1.59      18.94      20.65
C       2.05      20.13      20.04
C       2.52      20.06      18.70
C       2.51      18.85      18.00
C       2.05      21.35      20.74
C       2.05      22.40      21.35
C       2.05      23.63      22.06
C       2.52      23.69      23.40
C       2.50      24.90      24.10
C       2.05      26.08      23.48
C       1.60      26.03      22.15
C       1.59      24.82      21.45
C       2.05      11.50      18.62
C       1.60      39.49      18.00
C       1.59      38.28      18.70
C       2.05      38.21      20.04
C       2.52      39.40      20.65
C       2.51      40.61      19.95
C       2.05      36.99      20.75
C       2.05      35.93      21.35
C       2.05      34.71      22.06
C       2.52      33.52      21.45
C       2.50      32.31      22.15
C       2.05      32.26      23.48
C       1.60      33.43      24.10
C       1.59      34.64      23.40
Br       1.03      17.22      13.54
Br       3.08      11.95      13.54
Br       3.17      11.97      10.21
Br       0.94      17.19      10.21
Br       3.17      17.19       6.63
Br       0.93      11.97       6.63
Br       1.02      11.95       3.30
Br       3.08      17.22       3.30
Br       1.03      16.12      20.77
Br       3.09      18.76      16.21
Br       3.17      21.64      17.89
Br       0.94      19.02      22.42
Br       3.17      22.12      24.20
Br       0.93      24.73      19.68
Br       1.02      27.63      21.33
Br       3.08      10.41       0.63
Br       1.03      10.41      16.21
Br       3.09      13.04      20.77
Br       3.17      39.31      22.42
Br       0.94      36.70      17.90
Br       3.17      33.61      19.68
Br       0.93      36.22      24.20
Br       1.02      18.76       0.63
Br       3.08      30.71      21.33
O       1.08      27.60      25.02
O       1.08      30.16      24.02
O       1.08      15.16       1.48
O       3.03      28.18      24.02
O       3.02      14.01       1.48
O       3.03      30.73      25.02
O       1.08      13.59      18.08
O       1.08      14.01      15.36
O       1.08      16.15      17.08
O       3.03      13.02      17.08
O       3.03      15.58      18.08
O       3.03      15.16      15.36
