162

Mg      -1.54      21.64      11.62
Mg       0.74      19.88      11.19
Mg       3.02      20.38      12.93
Mg      -0.25      -1.04      23.94
Mg       4.31       0.62      24.67
Mg       2.03       0.42      22.87
H       2.72      19.26       7.45
H      -1.85      17.46      15.34
H       0.44      25.19      12.96
H       4.16      19.20       5.40
H      -0.40      15.71      16.41
H       1.88      26.99      13.93
H       0.64      20.59       7.78
H       2.92      17.07      14.02
H      -1.64      24.24      13.94
H       2.18      20.31       4.50
H       4.46      14.37      15.90
H      -0.11      27.22      15.34
H       3.81      20.26       2.60
H      -0.75      12.75      16.89
H       1.53      28.89      16.25
H      -1.63      -1.48      35.63
H       2.93      10.96      19.21
H       0.65      -9.48      16.64
H      -0.99      19.21       1.79
H       1.29      12.58      18.21
H       3.57      30.12      15.74
H       0.25      -2.09      32.36
H      -2.03       8.44      21.37
H       2.53      -6.35      17.75
H       1.83      -1.92      30.40
H      -0.45       6.65      22.21
H       4.11      -4.73      18.88
H      -2.14       0.10      32.88
H       2.42       7.79      19.21
H       0.14      -7.89      19.38
H       3.14      -0.10      34.85
H       0.86       9.60      18.40
H       5.42      -9.50      18.23
H       0.72       0.79      30.42
H      -1.56       5.31      19.84
H       3.01      -6.11      21.22
H       2.23       0.93      28.41
H      -0.05       3.51      20.73
H       4.51      -4.43      22.33
H      -2.44      -0.69      27.90
H       2.12       3.87      22.39
H      -0.16      -3.18      21.20
C       3.33      19.96       9.90
C      -1.23      19.23      13.50
C       1.05      22.71      12.34
C       4.26      19.98       8.75
C      -0.30      18.23      14.06
C       1.98      23.70      12.92
C       3.76      19.56       7.50
C      -0.80      17.34      15.05
C       1.48      24.99      13.19
C       4.55      19.53       6.36
C      -0.01      16.38      15.64
C       2.27      25.99      13.73
C      -0.94      19.92       6.48
C       1.34      16.29      15.25
C       3.62      25.70      14.01
C      -0.42      20.31       7.71
C       1.86      17.16      14.29
C       4.15      24.43      13.73
C      -1.21      20.37       8.87
C       1.07      18.13      13.66
C       3.35      23.40      13.21
C       0.51      19.74       3.25
C       2.79      13.58      17.01
C      -1.77      28.58      15.47
C       1.86      20.05       3.49
C       4.14      13.63      16.63
C      -0.42      28.22      15.62
C       2.76      20.03       2.44
C      -1.80      12.73      17.17
C       0.48      29.14      16.13
C       2.33      19.70       1.14
C      -2.23      11.77      18.11
C       0.05      30.43      16.49
C       0.97      19.40       0.90
C       3.25      11.71      18.49
C      -1.31      30.79      16.35
C       0.07      19.43       1.95
C       2.35      12.61      17.94
C      -2.21      29.86      15.85
C       1.61      -1.11      33.71
C      -0.67       9.12      19.85
C       3.89      -8.00      17.92
C       1.23      -1.63      32.46
C      -1.05       8.29      20.93
C       3.52      -6.66      18.09
C       2.10      -1.54      31.38
C      -0.18       7.31      21.38
C       4.38      -5.77      18.72
C       3.34      -0.89      31.53
C       1.06       7.12      20.75
C      -1.22      -6.22      19.20
C      -3.11      -0.38      32.79
C       1.45       7.96      19.68
C      -0.83      -7.57      19.01
C       2.88      -0.50      33.87
C       0.60       8.95      19.23
C       5.16      -8.45      18.37
C      -0.93       0.01      29.27
C       3.64       4.71      21.10
C       1.35      -4.72      21.11
C       0.38       0.51      29.43
C      -1.90       4.60      20.59
C       2.66      -5.10      21.47
C       1.20       0.59      28.32
C      -1.08       3.60      21.07
C       3.48      -4.18      22.09
C       0.75       0.23      27.03
C      -1.53       2.66      22.02
C       3.03      -2.89      22.42
C       1.71       0.35      25.92
C      -0.57       1.64      22.48
C       3.99      -1.99      23.09
C      -0.61      -0.21      26.86
C       3.95       2.73      22.49
C       1.67      -2.52      22.13
C      -1.41      -0.33      28.01
C       3.15       3.79      22.02
C       0.87      -3.45      21.45
N      -0.00      19.92       5.43
N       2.28      15.38      15.77
N      -2.28      26.61      14.54
N      -0.48      19.74       4.27
N       1.80      14.46      16.51
N      -2.76      27.70      14.96
N       3.33      19.73       0.15
N      -1.24      10.89      18.58
N       1.04      31.28      17.02
N       0.64      -1.22      34.72
N      -1.64      10.04      19.43
N       2.92      -8.82      17.32
N      -2.74      -0.79      30.35
N       1.82       6.05      21.25
N      -0.46      -5.26      19.88
N      -1.67      -0.10      30.47
N       2.89       5.80      20.60
N       0.61      -5.70      20.42
O       2.15      19.51       9.79
O       4.43      19.35      13.95
O      -0.13      23.04      12.00
O       3.75      20.43      11.03
O      -0.81      19.97      12.53
O       1.47      21.50      12.18
O      -0.64      20.78      10.02
O       1.64      18.91      12.73
O       3.92      22.20      12.99
O       2.89       0.77      26.11
O       0.61       1.59      22.02
O      -1.67      -2.37      23.35
O       1.32       0.01      24.73
O      -0.96       0.78      23.37
O       3.60      -0.79      23.38
O      -1.16      -0.50      25.67
O       3.40       1.84      23.34
O       1.12      -1.34      22.47
