176

Al       1.57      14.11      18.84
Al       5.18       4.72       6.31
Al       4.90      14.13      18.87
Al       1.86       4.70       6.26
H       6.59      12.33      10.48
H       5.52       6.56      14.67
H       3.26      18.68       2.09
H       2.19       0.09      23.04
H       0.19      11.96      14.87
H       6.39       6.78      10.31
H       3.52      16.29      22.84
H       3.06       2.63       2.26
H       5.98       9.58      18.35
H       0.75       9.24       6.94
H       2.65      18.67      19.37
H       4.08       0.17       5.64
H       0.58      11.27       8.37
H       5.69       7.57      16.90
H       3.91      19.74       4.20
H       2.36      -0.92      20.82
H       4.56      18.27      13.67
H       2.20      -0.32      10.60
H       1.23       9.97      24.04
H       5.53       9.74       1.97
H       4.50      16.54      15.48
H       2.25       1.45       8.84
H       1.17      11.71      22.24
H       5.58       7.96       3.74
H       1.99      17.25      16.32
H       4.75       2.27       9.53
H       5.32      11.00      21.39
H       1.42       7.14       3.04
H       2.05      19.04      14.57
H       4.69       0.54      11.33
H       5.38       9.21      23.15
H       1.36       8.88       1.24
H       4.93      13.60      14.14
H       4.49      11.87      14.12
H       4.08      13.81      11.78
H       3.63      12.10      11.79
H       2.08      12.50      13.72
H       1.63      13.53      12.36
H       2.51      14.22      13.74
H       4.09       7.17      10.97
H       3.58       6.42      12.51
H       4.81       4.95      10.11
H       4.39       4.19      11.65
H       1.96       4.79      11.31
H       2.56       3.90       9.89
H       2.36       5.66       9.82
H       1.60      14.65      23.57
H       1.16      16.37      23.59
H       0.75      17.20       0.79
H       0.30      18.91       0.78
H       5.41      15.75      23.99
H       4.96      17.48       0.21
H       5.84      14.03      23.97
H       0.77       2.25       1.60
H       0.25       2.99       0.06
H       1.48       4.47       2.46
H       1.06       5.23       0.93
H       5.29       4.62       1.27
H       5.89       5.52       2.68
H       5.69       3.76       2.75
H       3.25      13.36      17.30
H       3.49       5.33       7.91
H       6.58      14.89      20.41
H       0.16       4.08       4.67
C       3.22      12.52      20.68
C       3.52       6.38       4.52
C       6.55      15.73      17.04
C       0.19       3.03       8.05
C       3.22      16.14      20.20
C       3.54       2.74       4.87
C       6.55      12.11      17.51
C       0.21       6.67       7.70
C       0.21       7.90       8.56
C       6.45      10.88      16.67
C       3.54       1.51       4.01
C       3.12      17.37      21.04
C       0.39      10.28       8.79
C       5.92       8.54      16.46
C       3.72      20.73       3.78
C       2.59      -1.89      21.26
C       0.49       9.16       7.99
C       6.09       9.65      17.26
C       3.81       0.25       4.58
C       2.77      18.60      20.45
C       6.55       7.77       9.90
C       6.56      11.00      15.30
C       3.22       1.64       2.67
C       3.23      17.25      22.42
C       6.48       8.90      10.76
C       6.27       9.91      14.43
C       3.15       0.51       1.82
C       2.95      18.33      23.28
C       0.06      10.18      10.16
C       6.00       8.65      15.05
C       3.39      20.83       2.41
C       2.67      -2.00      22.67
C       6.21       8.82      12.18
C       6.27      10.01      12.99
C       2.88       0.59       0.39
C       2.94      18.24      24.73
C       6.30      11.28      12.29
C       5.89       7.59      12.86
C       2.97      19.73       0.28
C       2.56      -0.94      24.85
C       6.55      11.35      10.95
C       5.78       7.52      14.22
C       3.22      19.66       1.62
C       2.45      -0.87      23.49
C       5.45      18.06      14.26
C       1.31       0.26      10.37
C       2.12      10.19      23.45
C       4.64       9.16       2.20
C       5.41      17.09      15.26
C       1.33       1.24       9.39
C       2.08      11.16      22.46
C       4.66       8.18       3.18
C       6.57      16.79      15.99
C       0.17       1.97       9.09
C       3.24      11.45      21.72
C       3.50       7.45       3.48
C       1.10      17.49      15.74
C       5.64       1.70       9.78
C       4.43      10.75      21.98
C       2.31       7.72       2.79
C       1.13      18.48      14.76
C       5.61       0.73      10.77
C       4.46       9.77      22.96
C       2.28       8.68       1.80
C       6.64      18.77      14.00
C       0.11      -0.01      11.09
C       3.31       9.48      23.72
C       3.44       9.42       1.48
C       0.02      19.75      12.98
C       0.08      -1.00      12.10
C       3.35       8.49      24.73
C       3.41      10.41       0.47
C       4.80      12.72      13.49
C       3.75      12.99      12.43
C       2.42      13.33      13.10
C       4.28       6.33      11.66
C       4.11       5.00      10.96
C       2.67       4.83      10.47
C       1.47      15.53      24.23
C       0.42      18.02       0.14
C       5.75      14.91      24.62
C       0.95       3.09       0.91
C       0.78       4.41       1.62
C       6.00       4.59       2.10
O       4.37      15.66      19.93
O       2.40       3.24       5.15
O       1.04      12.59      17.78
O       5.73       6.18       7.43
O       2.08      12.93      20.28
O       4.66       6.00       4.96
O       5.42      15.31      17.43
O       1.33       3.42       7.62
O       2.11      15.65      19.84
O       4.66       3.20       5.24
O       5.43      12.59      17.88
O       1.33       6.21       7.33
O       1.03      15.30      17.43
O       5.72       3.49       7.69
O       4.36      12.95      20.29
O       2.39       5.92       4.88
O       3.24      13.98      18.05
O       3.51       4.80       7.10
O       6.57      14.26      19.67
O       0.18       4.62       5.47
O       6.12      12.48      12.94
O       5.64       6.41      12.17
O       2.79      15.76      24.77
O       2.31       3.00       0.40
