192

Al       8.25       3.35       6.58
Al       5.93       5.56       6.62
Al       5.08       2.70       6.62
Al      11.34       6.35      19.86
Al      11.05       9.57      19.85
Al      13.81       8.46      19.86
H      14.65       8.20      23.61
H       5.11       2.10       2.66
H       4.17       6.87       9.71
H       8.82       4.23       2.83
H      12.92       4.27      23.26
H      15.12      10.41      16.20
H       9.08       9.92      23.66
H      12.93       4.22      16.49
H      15.15      10.43      23.46
H       9.09       9.94      16.00
H       8.81       0.08       9.64
H       5.77       0.35      17.04
H       2.01       3.14       3.39
H       7.94       8.31       9.45
H       8.81       0.10       3.57
H       2.06       3.12       9.87
H       7.86       8.31       3.74
H       9.35       5.73      22.76
H      14.60       8.17      16.14
H       5.77       0.34      22.67
H       9.26       5.76      16.91
H       5.14       2.11      10.59
H       4.16       6.86       3.54
H       8.84       4.22      10.39
H      10.42       3.01       7.37
H      10.97       4.09      19.30
C       7.91       5.74       4.73
C       9.71       8.06      21.70
C      13.06       3.57      13.81
C      15.35      11.21      26.09
C       8.59       9.64      13.30
C      15.10      11.44      12.23
C      13.16       3.42       0.83
C       8.43       9.32      11.97
C      15.06      11.45       0.97
C      13.21       3.40      12.45
C       8.36       9.31       1.22
C      13.05      10.56      18.03
C      13.58       6.49      21.84
C      14.25       5.61       1.02
C       7.32       0.49      12.71
C       8.66       6.92       0.71
C      14.28       5.60      12.25
C       7.27       0.49       0.52
C       8.71       6.93      12.49
C       7.48       0.18      14.08
C       3.88       4.61       8.40
C      14.10       5.84      26.07
C       8.81       7.25      13.87
C       7.53       0.17      25.61
C      14.03       5.82      13.67
C       8.88       7.24      25.80
C      15.57       7.59       0.90
C       5.41       1.91      13.30
C       9.03       4.53       0.15
C      15.60       7.59      12.37
C       5.45       1.89      26.42
C       6.78       1.57       4.67
C       9.06       4.54      13.07
C       5.52       1.56      14.62
C      14.61       8.07       0.04
C       9.00       4.84      14.40
C       5.55       1.54      25.10
C      14.64       8.06      13.23
C       9.10       4.82      25.28
C       3.47       6.20       3.03
C       6.01       1.53      10.92
C       8.69       5.25       2.48
C       7.95       5.73       8.47
C       3.49       6.20      10.23
C       5.97       1.52       2.33
C       8.73       5.25      10.73
C       6.55       0.10      16.34
C      14.36       7.26      24.07
C       9.11       6.54      16.17
C       6.57       0.09      23.36
C      14.31       7.23      15.67
C       9.19       6.51      23.50
C      13.84       6.21      23.28
C       3.86       4.60       4.85
C      13.22      11.29      16.73
C       9.24       7.85      23.09
C      13.82       6.17      16.46
C      13.24      11.29      22.96
C       9.21       7.87      16.57
C       6.93       1.07       9.97
C       3.12       4.96       3.61
C       8.35       6.23       9.81
C       6.91       1.08       3.26
C       3.15       4.96       9.65
C       6.78       1.57       8.55
C       8.30       6.23       3.39
C      15.07       6.53       1.78
C       6.22       1.30      12.28
C       8.82       5.56       1.13
C      15.10       6.52      11.48
C       6.17       1.29       0.96
C       8.86       5.57      12.08
C       6.51       0.61      15.04
C      14.43       7.09      25.44
C       8.94       6.21      14.83
C       9.77       8.06      17.94
C       6.54       0.60      24.66
C      14.36       7.08      14.30
C       9.03       6.19      24.84
C       2.26       4.09       2.94
C       8.06       0.36      10.38
C       8.16       7.56       3.01
C       2.30       4.09      10.32
C       8.05       0.37       2.84
C       8.23       7.56      10.19
C      14.29      11.02      15.86
C      13.06      10.57      21.66
C      13.39       5.03      23.88
C       9.01       8.91      15.66
C      14.32      11.03      23.81
C      13.37       5.00      15.87
C       9.04       8.89      24.00
C      13.86       4.39       1.63
C       8.27       0.04      11.73
C       8.40       7.94       1.68
C      13.90       4.38      11.63
C       8.23       0.05       1.48
C      13.62       6.44      17.92
C       8.46       7.95      11.52
C      14.26      11.49      14.54
C      13.54       4.81      25.27
C       8.79       8.62      14.30
C      14.30      11.49      25.14
C      13.48       4.79      14.47
C       8.84       8.60      25.36
C      13.13       3.59      25.93
C      15.29      11.21      13.57
C       8.63       9.62      26.36
Br      12.47       2.17      24.86
Br      16.38      10.90       2.21
Br      12.65       1.79      11.62
Br       8.14      10.67       2.52
Br      16.95      10.56      14.23
Br       8.55      11.43      25.78
Br      12.40       2.15      14.87
Br      16.99      10.56      25.42
Br       8.53      11.44      13.87
Br      16.41      10.89      10.97
Br      12.60       1.81       1.65
Br       8.21      10.68      10.67
Cl      13.15       8.68       0.82
Cl       4.23       3.10       0.45
Cl       5.11       7.24      13.02
Cl       9.29       2.93       0.68
Cl       4.49       2.27      15.80
Cl       9.16       3.57      24.10
Cl      13.18       8.67      12.47
Cl       4.49       2.24      23.93
Cl       9.05       3.59      15.58
Cl       4.30       3.13      12.82
Cl       5.08       7.25       0.23
Cl       9.33       2.94      12.54
O       7.83       2.06       5.19
O      12.55       5.96      21.34
O       9.79       9.22      18.50
O      14.01       9.83      21.20
O       8.46       4.70       5.17
O       4.58       5.56       7.91
O       5.62       1.55       5.23
O       8.51       4.69       8.03
O       4.54       5.55       5.37
O       5.60       1.55       8.01
O      10.26       7.00      18.43
O       6.98       6.37       7.90
O      11.91      10.68      21.12
O      14.37       7.34      18.47
O      10.05       7.02      21.08
O      11.88      10.65      18.55
O      14.37       7.32      21.23
O       6.40       3.86       6.62
O      12.09       8.15      19.86
O       3.86       3.40       5.30
O       7.82       2.04       8.03
O       6.94       6.38       5.31
O       3.86       3.42       7.94
O      12.67       5.84      18.50
O       9.82       9.26      21.23
O      13.99       9.84      18.50
O       9.94       2.91       6.55
O      10.60       4.75      19.90
