180

Al       4.80       4.78      13.98
Al       6.52       2.07      13.92
Al       8.01       4.67      13.91
Al      -4.37      10.17       0.35
Al       0.16       1.70       0.43
Al       5.25      10.53       0.43
H       7.58       2.81      20.27
H       8.29       0.49       6.09
H       8.55       7.11       6.05
H       2.70       3.75       6.13
H       8.82       0.21       3.68
H       8.47       7.76       3.64
H       2.13       3.43       3.72
H      10.28       4.07       7.98
H       4.50       6.93       7.98
H       4.83       0.24       7.94
H      -1.15       3.16       6.50
H       7.01       5.27      20.32
H       4.57       8.68       6.58
H      -2.81      10.80       6.56
H      -0.69       2.94       4.07
H       4.48       9.25       4.16
H      -3.29      10.51       4.14
H       2.89      11.30       8.21
H      -4.11       7.90       8.19
H       1.97       3.45       8.28
H       8.84       4.04      20.13
H       5.32       5.75      20.05
H       5.12       3.28      20.23
H       5.60       1.57      20.20
H       8.36       0.32      10.61
H       8.73       7.15      10.57
H       2.66       3.80      10.65
H      11.67       1.69      19.51
H       5.98       9.36      19.43
H       2.19       0.20      19.54
H      11.96       1.40      21.82
H       5.87       9.78      21.74
H       1.70       0.23      21.84
H       7.94       2.70      22.55
H       3.84      11.19      19.74
H      -4.38       8.73      19.85
H       1.48       2.65      19.62
H       8.41       0.32      22.27
H       8.59       7.33      22.44
H       2.52       3.87      22.11
H       4.02      11.05      22.08
H      -4.57       9.03      22.17
H       1.19       2.71      21.96
H      -1.59       3.38      19.75
H       6.79       5.69      22.58
H       4.73       8.12      19.58
H      -2.16      11.09      19.88
H      -1.13       3.13      22.03
H       4.53       8.64      21.85
H      -2.70      10.95      22.15
H       8.18       0.34      19.95
H       8.86       7.04      20.14
H       2.69       3.91      19.78
H       4.79       3.13      22.52
H       9.78       4.37      10.40
H       4.54       6.27      10.38
H       5.45       0.56      10.34
H       3.17       6.36      13.40
H      -2.32       9.26       1.03
C       6.77       6.18      15.84
C      10.16       1.76      23.77
C       6.36       8.08      23.74
C       2.85       1.71      23.74
C       9.29       2.15      18.31
C       6.85       7.06      18.34
C       3.78       1.98      18.31
C       9.06       2.30      17.13
C       6.86       6.75      17.16
C       4.06       2.10      17.13
C       2.09       1.29      26.24
C       4.53       2.44      15.82
C      10.83       1.30      26.28
C       6.49       8.94      26.23
C       9.05       2.36      10.66
C       6.64       6.68      10.62
C       4.09       2.20      10.63
C       9.61       3.41       9.91
C       5.44       6.64       9.89
C       4.68       1.18       9.87
C       9.89       3.23       8.56
C       5.42       7.02       8.55
C       8.59       2.57      15.80
C       4.32       1.00       8.54
C       9.64       2.01       7.92
C       6.60       7.47       7.91
C       3.36       1.82       7.94
C       6.64       6.16      12.01
C       4.56       2.48      12.01
C       8.62       2.60      12.06
C       9.10       0.96       8.68
C       7.79       7.52       8.66
C       2.75       2.83       8.72
C       9.37       0.54      21.78
C       8.80       1.13      10.03
C       7.81       7.12       9.99
C       3.12       3.02      10.04
C       9.15       1.01       5.66
C       7.67       7.60       5.65
C       2.69       2.75       5.70
C       9.42       0.87       4.30
C       7.62       7.94       4.30
C       2.39       2.57       4.36
C      11.27       2.42       4.52
C       7.95       8.02      21.87
C       5.36       8.77       4.58
C       2.74       0.19       4.59
C      11.00       2.54       5.88
C       5.42       8.45       5.93
C       3.02       0.36       5.94
C       9.93       1.85       6.48
C       6.56       7.85       6.49
C       3.01       1.64       6.52
C      10.49       1.58       3.72
C       6.47       8.52       3.76
C       2.23       2.90      21.67
C       2.43       1.29       3.78
C       2.05       1.06       2.37
C      10.87       1.35       2.30
C       6.47       8.98       2.34
C       8.63       3.03      20.49
C       6.28       6.07      20.49
C       4.80       2.26      20.50
C      11.01       2.36      20.08
C       5.69       8.46      19.99
C       3.07       0.48      20.14
C       9.20       0.60      20.25
C      11.25       2.21      21.60
C       5.56       8.75      21.51
C       2.76       0.43      21.65
C      10.38       1.62      24.95
C       6.36       8.38      24.92
C       2.57       1.60      24.92
C       9.53       2.02      19.74
C       6.75       7.36      19.75
C       3.51       1.91      19.73
C       8.86       2.95      22.02
C       8.10       7.80      20.35
C       6.13       6.33      22.00
C       4.57       2.17      22.02
C       9.93       1.88      22.34
C       6.47       7.80      22.32
C       3.11       1.79      22.32
C       2.41       2.92      20.14
Cl       9.35       4.56      22.68
Cl       4.46       5.91      22.56
Cl       5.72       1.00      22.79
O       4.20       3.59      15.39
O       4.21       3.57      12.54
O       7.87       1.74      12.62
O       7.79       5.93      12.55
O       5.52       5.92      12.55
O       5.35       1.62      12.55
O       8.97       3.71      12.60
O       6.47       3.83      13.94
O      -5.95      11.25       0.41
O       2.37       0.15      26.70
O      11.64       2.11      26.85
O       7.80       1.72      15.27
O       5.41       9.18      26.90
O       7.57       9.04       1.73
O       1.44       2.02       1.75
O      10.38       0.33       1.70
O      -3.72      11.24       1.87
O      -1.06       2.15       1.79
O       5.32       9.34       1.85
O       7.88       5.98      15.21
O       7.67       9.20      26.61
O       1.37       2.19      26.81
O      10.43       0.19      26.77
O       5.62       5.88      15.43
O       5.27       1.59      15.21
O       8.94       3.68      15.27
O       3.28       5.65      14.05
O      -2.92       9.18       0.28
