44

Al       3.91       2.96       8.68
Al       0.60       2.94       8.65
H      -1.09       2.26       7.04
H       2.22       4.44       9.55
H      -3.02       2.98      12.73
H      -3.01       2.66      15.21
H       0.99       1.05      14.97
H       0.98       1.43      12.50
H       0.29       4.90       2.31
H       0.28       4.50       4.77
H       4.24       2.86       4.54
H       4.25       3.20       2.07
C       2.30       0.57       8.62
C       2.22       3.35       6.26
C      -1.09       5.36       8.75
C      -1.00       2.51      11.01
C      -1.02       2.24      12.48
C      -2.15       2.56      13.24
C      -2.14       2.38      14.61
C      -1.00       1.85      15.26
C       0.12       1.49      14.48
C       0.11       1.69      13.11
C      -0.98       1.71      16.67
C       2.25       4.22       0.61
C       2.26       4.06       2.02
C       1.15       4.45       2.80
C       1.14       4.23       4.17
C       2.25       3.64       4.80
C       3.38       3.30       4.04
C       3.39       3.50       2.66
C       2.26      -0.92       8.71
C      -1.05       6.86       8.67
O       3.43       1.10       8.82
O       1.08       3.43       6.84
O       0.00       4.76       8.97
O      -2.09       2.87      10.47
O      -2.24       4.85       8.59
O       0.11       2.39      10.41
O       1.21       1.16       8.34
O       3.32       3.02       6.83
O      -1.07       2.47       7.99
O       2.25       3.50       9.29
F       1.28       7.08       8.87
F      -0.05      -1.14       8.52
