306

Fe      -0.00       0.00      14.84
Fe       5.35      -4.28       7.42
Fe      10.71       4.28       7.42
Fe       2.68       4.28       7.42
Fe       8.04      12.85       7.42
Fe      -2.67       8.56       0.00
H       1.48       4.67      13.90
H       6.83      -5.80      11.94
H      12.19       1.13       3.85
H       1.20       5.80      11.94
H      11.91      -1.13       3.85
H       6.55      -4.67      13.90
H       3.88       3.90       0.94
H      -1.47      14.37       2.91
H      -6.83       7.43      10.99
H       4.16       2.76       2.91
H      -6.55       9.70      10.99
H      -1.19      13.23       0.94
H       8.46      13.47       1.00
H       3.10       9.53      11.17
H      -2.26       2.69       2.67
H      -0.42       7.60      11.17
H       4.95      14.44       2.67
H      10.30       3.66       1.00
H      -3.10      -4.91      13.85
H       2.26      -0.96       3.67
H       7.62       5.88      12.17
H       5.78       0.96       3.67
H       0.41      -5.88      12.17
H      -4.94       4.91      13.85
H       8.78      11.49       2.51
H       3.43       9.21       8.70
H      -1.93       4.99       3.63
H      -0.74       7.92       8.70
H       4.62      12.14       3.63
H       9.97       5.64       2.51
H      -3.42      -2.92      12.33
H       1.93      -0.65       6.14
H       7.29       3.57      11.21
H       6.10       0.65       6.14
H       0.74      -3.57      11.21
H      -4.61       2.92      12.33
H       7.49       9.39       2.07
H       2.14      10.65       7.10
H      -3.22       5.66       5.67
H       0.55       6.48       7.10
H       5.91      11.47       5.67
H      11.26       7.74       2.07
H      -2.13      -0.82      12.77
H       3.22      -2.08       7.74
H       8.58       2.91       9.17
H       4.81       2.08       7.74
H      -0.55      -2.91       9.17
H      -5.90       0.82      12.77
H       6.44       4.07       4.70
H       1.09      11.03       1.18
H      -4.26      10.59       8.97
H       1.60       6.10       1.18
H       6.95       6.54       8.97
H      -3.75      13.06       4.70
H      -1.08       4.49      10.15
H       4.27      -2.47      13.66
H       9.62      -2.03       5.87
H       3.76       2.47      13.66
H      -1.59       2.03       5.87
H       9.11      -4.49      10.15
H       8.01       3.43       6.50
H      -2.70       1.22      14.56
H       2.66      -4.65       8.62
H      -5.33      -1.22      14.56
H       5.38       4.65       8.62
H       0.02      -3.43       6.50
H      -2.65       5.14       8.34
H       8.06       7.34       0.28
H       2.70      13.21       6.22
H      10.69       9.79       0.28
H      -0.02       3.91       6.22
H       5.34      11.99       8.34
H      10.45       6.71       5.73
H       5.10       8.82       2.95
H      -0.26      10.17       6.16
H      -2.41       8.31       2.95
H       2.94       6.96       6.16
H       8.31      10.42       5.73
H      -5.09       1.85       9.11
H       0.26      -0.25      11.89
H       5.62      -1.60       8.68
H       7.77       0.25      11.89
H       2.42       1.60       8.68
H      -2.95      -1.85       9.11
H       8.91       7.53       3.97
H       3.56       9.93       4.54
H      -1.80       8.23       6.34
H      -0.87       7.20       4.54
H       4.49       8.89       6.34
H       9.85       9.60       3.97
H      -3.55       1.04      10.87
H       1.80      -1.37      10.31
H       7.16       0.33       8.51
H       6.23       1.37      10.31
H       0.87      -0.33       8.51
H      -4.49      -1.04      10.87
C       5.36       6.15       1.44
C       0.01      12.81       4.61
C      -5.34       6.73       8.79
C       2.68       4.32       4.61
C       8.03      10.40       8.79
C      -2.68      10.98       1.44
C      -0.00       2.41      13.40
C       5.35      -4.24      10.23
C      10.70       1.83       6.05
C       2.68       4.24      10.23
C      -2.67      -1.83       6.05
C       8.04      -2.41      13.40
C      -1.37       2.36      11.82
C       3.98      -2.85      10.97
C       9.33       0.49       6.89
C       4.06       2.85      10.97
C      -1.30      -0.49       6.89
C       9.41      -2.36      11.82
C       6.73       6.21       3.02
C       1.38      11.42       3.87
C      -3.97       8.07       7.96
C       1.30       5.71       3.87
C       6.66       9.06       7.96
C      -4.05      10.92       3.02
C       4.39       5.90       0.41
C      -0.96      13.83       4.91
C      -6.31       5.97       9.52
C       3.65       3.30       4.91
C      -7.06      11.16       9.52
C      -1.71      11.23       0.41
C       0.97       2.66      14.43
C       6.32      -5.26       9.93
C      11.67       2.60       5.32
C       1.72       5.26       9.93
C      12.42      -2.60       5.32
C       7.07      -2.66      14.43
C       1.65       3.86      14.61
C       7.00      -6.02      10.88
C      12.36       2.15       4.19
C       1.03       6.02      10.88
C      11.74      -2.15       4.19
C       6.38      -3.86      14.61
C       3.71       4.70       0.23
C      -1.64      14.58       3.96
C      -7.00       6.42      10.65
C       4.33       2.55       3.96
C      -6.38      10.71      10.65
C      -1.02      12.43       0.23
C       7.91      12.55       0.83
C       2.55      10.14      10.46
C      -2.81       3.01       3.56
C       0.13       6.99      10.46
C       5.50      14.12       3.56
C      10.85       4.58       0.83
C      -2.55      -3.98      14.01
C       2.81      -1.57       4.39
C       8.17       5.56      11.28
C       5.23       1.57       4.39
C      -0.14      -5.56      11.28
C      -5.49       3.98      14.01
C       8.09      11.45       1.67
C       2.74       9.96       9.08
C      -2.62       4.29       4.09
C      -0.05       7.17       9.08
C       5.31      12.84       4.09
C      10.66       5.68       1.67
C      -2.73      -2.88      13.17
C       2.62      -1.39       5.76
C       7.98       4.28      10.75
C       5.41       1.39       5.76
C       0.05      -4.28      10.75
C      -5.30       2.88      13.17
C       7.38      10.27       1.44
C       2.03      10.75       8.18
C      -3.33       4.67       5.22
C       0.66       6.38       8.18
C       6.02      12.46       5.22
C      11.37       6.86       1.44
C      -2.02      -1.71      13.41
C       3.33      -2.18       6.66
C       8.69       3.89       9.62
C       4.70       2.18       6.66
C      -0.66      -3.89       9.62
C      -6.01       1.71      13.41
C      -2.20       2.72      10.69
C       3.15      -2.05      11.86
C       8.50      -0.67       7.14
C       4.88       2.05      11.86
C      -0.47       0.67       7.14
C      10.23      -2.72      10.69
C       7.56       5.84       4.15
C       2.21      10.62       2.99
C      -3.14       9.23       7.71
C       0.48       6.51       2.99
C       5.83       7.89       7.71
C      -4.87      11.29       4.15
C      -1.95       3.88       9.93
C       3.40      -1.97      13.23
C       8.75      -1.90       6.51
C       4.63       1.97      13.23
C      -0.72       1.90       6.51
C       9.98      -3.88       9.93
C       7.31       4.69       4.91
C       1.96      10.54       1.61
C      -3.39      10.47       8.33
C       0.73       6.59       1.61
C       6.08       6.66       8.33
C      -4.62      12.44       4.91
C      -2.83       4.25       8.93
C       2.52      -1.29      14.05
C       7.87      -2.95       6.70
C       5.52       1.29      14.05
C       0.16       2.95       6.70
C      10.87      -4.25       8.93
C       8.19       4.32       5.91
C       2.84       9.86       0.79
C      -2.51      11.52       8.14
C      -0.16       7.27       0.79
C       5.20       5.61       8.14
C      -5.51      12.81       5.91
C       9.54       6.16       5.49
C       4.19       9.30       2.59
C      -1.16      10.24       6.76
C      -1.50       7.83       2.59
C       3.85       6.89       6.76
C       9.21      10.97       5.49
C      -4.18       2.41       9.35
C       1.17      -0.73      12.26
C       6.52      -1.68       8.08
C       6.86       0.73      12.26
C       1.51       1.68       8.08
C      -3.85      -2.41       9.35
C       8.68       6.61       4.51
C       3.33       9.93       3.47
C      -2.02       9.16       6.87
C      -0.65       7.20       3.47
C       4.71       7.97       6.87
C      10.07      10.52       4.51
C      -3.32       1.96      10.34
C       2.03      -1.36      11.37
C       7.38      -0.60       7.98
C       6.01       1.36      11.37
C       0.65       0.60       7.98
C      -4.71      -1.96      10.34
N      -0.62       1.20      13.46
N       4.74      -3.68       9.15
N      10.09       2.48       7.08
N       3.30       3.68       9.15
N      -2.06      -2.48       7.08
N       8.65      -1.20      13.46
N       5.98       7.37       1.39
N       0.62      12.25       5.69
N      -4.73       6.08       7.76
N       2.07       4.88       5.69
N       7.42      11.05       7.76
N      -3.29       9.76       1.39
N      -1.51       1.16      12.45
N       3.85      -2.79       9.62
N       9.20       1.63       7.62
N       4.19       2.79       9.62
N      -1.17      -1.63       7.62
N       9.54      -1.16      12.45
N       6.87       7.41       2.39
N       1.51      11.35       5.22
N      -3.84       6.93       7.22
N       1.17       5.78       5.22
N       6.53      10.20       7.22
N      -4.18       9.72       2.39
N       5.81       5.39       2.45
N       0.46      12.31       3.45
N      -4.90       7.99       8.95
N       2.23       4.82       3.45
N       7.58       9.14       8.95
N      -3.12      11.74       2.45
N      -0.45       3.17      12.39
N       4.90      -3.75      11.40
N      10.26       0.57       5.90
N       3.13       3.75      11.40
N      -2.22      -0.57       5.90
N       8.48      -3.17      12.39
N      -1.14      -1.58      14.42
N       4.21      -3.12       6.26
N       9.58       4.71       9.00
N       3.82       3.12       6.26
N      -1.54      -4.71       9.00
N      -6.89       1.58      14.42
N       6.50      10.15       0.42
N       1.15      11.69       8.58
N      -4.22       3.85       5.84
N       1.54       5.44       8.58
N       6.90      13.28       5.84
N      12.25       6.98       0.42
N      -3.97       3.56       8.66
N       1.38      -0.71      13.60
N       6.73      -2.85       7.43
N       6.65       0.71      13.60
N       1.30       2.85       7.43
N      12.00      -3.56       8.66
N       9.33       5.01       6.19
N       3.98       9.27       1.25
N      -1.37      11.41       7.41
N      -1.29       7.86       1.25
N       4.06       5.72       7.41
N      -6.64      12.12       6.19
