72

Zn       5.97       5.91       8.79
Zn       5.92       8.71       8.84
H       4.43      10.90       7.53
H       4.32      13.39       7.54
H       7.41      13.33      10.60
H       4.47       1.30       7.02
H       7.53       1.22      10.11
H       7.43       3.71      10.12
H       7.44      -0.89       9.90
H       4.42      15.51       7.74
H       5.93       9.63       4.64
H       5.94       9.79       2.17
H       5.98       5.46       1.97
H       5.88       9.17      15.66
H       5.92       4.85      15.47
H       5.94       5.00      13.00
H       5.91       4.92      17.58
H       5.96       9.71       0.05
H      10.48       9.40       8.87
C       5.95       7.49       6.21
C       3.33       7.35       8.82
C       5.93       7.13      11.42
C       8.56       7.26       8.81
C       5.07      11.50       8.18
C       5.02      12.88       8.20
C       5.86      13.60       9.08
C       6.73      12.85       9.89
C       6.70      11.47       9.79
C       5.89      15.05       9.18
C       5.96      -0.43       8.46
C       5.15       1.77       7.73
C       6.00       1.02       8.56
C       6.84       1.74       9.44
C       6.80       3.12       9.46
C       5.19       3.16       7.82
C       5.95       7.49       4.71
C       5.94       8.72       4.02
C       5.95       8.80       2.64
C       5.96       7.63       1.86
C       5.97       6.40       2.53
C       5.97       6.34       3.91
C       5.97       7.63       0.40
C       5.89       7.00      17.23
C       5.89       8.23      15.10
C       5.90       7.00      15.77
C       5.92       5.83      14.99
C       5.93       5.91      13.61
C       5.92       7.14      12.92
C       5.90       8.29      13.72
C       0.99       6.21       8.80
C      10.87       8.39       8.84
C       1.85       7.29       8.82
C      10.04       7.28       8.82
C      12.23       8.00       8.84
C      -0.37       6.60       8.81
S       0.98       8.80       8.85
S      10.89       5.77       8.79
Br       1.45       4.38       8.78
N       5.91      10.79       8.97
N       5.97       3.83       8.65
O       6.02       6.36       6.79
O       5.87       8.63       6.78
O       3.84       8.52       8.79
O       3.95       6.24       8.85
O       5.87       8.26      10.83
O       6.01       5.99      10.85
O       8.02       6.10       8.84
O       7.96       8.38       8.78
F       7.53      10.75      10.56
F       4.40       3.88       7.02
F       5.97       5.10       4.46
F       5.90       9.53      13.16
