74

Zn       3.85       5.93      11.87
Zn       6.55       5.95      11.92
H       7.26       6.46      18.65
H       7.26       5.33       5.11
H       7.21       6.40      16.15
H       7.19      10.29      11.68
H       4.11      10.42      11.54
H       8.90       7.47      13.16
H       9.07       5.21      11.29
H       5.27       9.46      22.49
H       3.05       6.02       7.66
H       3.02       5.68      18.69
C       5.17       3.35      11.95
C       5.07       3.69      23.13
C       4.93       3.18       0.76
C       4.98       4.37       1.47
C       5.03       5.59       0.73
C       5.08       6.84       1.42
C       5.12       8.01       0.65
C       5.24       8.53      23.05
C       4.98       4.37       2.95
C       5.11       6.89       2.90
C       3.96       5.86       5.72
C       5.16       5.79       9.29
C       3.98       5.88       7.10
C       5.18       5.72       7.80
C       6.35       5.53       7.05
C       6.34       5.49       5.66
C       5.13       5.67       4.98
C       3.95       5.86      18.15
C       3.94       5.85      16.76
C       5.11       6.05      16.01
C       6.30       6.26      16.72
C       6.33       6.28      18.11
C       5.19       8.54      11.73
C       5.15       6.08      18.82
C       6.22      10.79      11.65
C       5.11      10.01      11.63
C       6.12       0.98      11.63
C       5.12       1.87      11.87
C       0.86       6.71      12.51
C       9.35       6.70      12.52
C       5.15       6.05      14.51
C       5.20       7.34      20.90
C       5.12       4.83      20.91
C       5.12       4.86      22.39
C       5.16       6.10      23.10
C       5.20       7.32      22.38
N       5.16       6.09      20.26
N       5.09       5.64       3.55
N       1.72       5.96      11.92
N       8.60       5.91      11.87
O       4.06       3.93      12.16
O       5.10       3.80      20.25
O       4.89       3.36       3.64
O       5.16       7.93       3.56
O       6.30       3.91      11.79
O       4.03       5.60       9.85
O       6.25       6.04       9.89
O       4.08       7.92      11.55
O       6.31       7.99      12.00
O       4.05       6.23      13.89
O       6.29       5.87      13.97
O       5.23       8.38      20.25
F       5.03       2.48      22.57
F       2.75       5.62      16.16
F       7.37       1.46      11.40
F       3.88       1.35      12.10
F       1.40       7.67      13.26
F       1.10       4.97      11.15
F       4.89       1.99       1.36
F       5.16       9.22       1.23
F       2.79       6.02       5.05
F       7.55       5.33       7.65
