76

Al       6.31      12.22       9.99
Al       2.97      12.21      10.01
Al       3.14      24.44      19.99
Al       6.07       6.52      19.96
H       5.97       6.68       6.71
H       2.93      18.58      16.71
H       6.56      20.02      14.83
H       4.62       4.97       6.14
H       3.85       7.73       3.73
H       4.64      10.48       9.85
H       1.30      13.95       9.69
H       3.94       1.73       0.14
H       1.00      16.35       0.72
C       4.64      13.47       7.92
C       4.64      14.10      11.50
C       1.28      10.98      12.07
C       1.31      10.32       8.50
C       6.53       5.32       5.14
C       0.78       4.99       4.13
C       1.92       5.82       4.00
C       2.16       6.90       4.87
C       1.20       7.21       5.87
C       6.73       6.42       5.97
C       0.62       3.90       3.25
C       1.33       8.30       6.76
C       1.30       9.22       7.56
C       0.60       2.99       2.44
C       1.10       8.44      16.65
C       1.15       9.04      15.59
C       1.21       9.71      14.41
C       1.26      10.30      13.35
C       4.61      14.15       6.65
C       4.53      14.74       5.58
C       4.46      15.39       4.40
C       4.39      15.98       3.33
C       3.72      18.47      15.96
C       4.75      19.43      15.87
C       5.76      19.28      14.90
C       5.73      18.20      14.03
C       4.71      17.22      14.10
C       3.71      17.38      15.10
C       4.77      20.53      16.76
C       4.68      16.13      13.21
C       4.66      15.19      12.44
C       4.79      21.47      17.54
C       4.81      22.56      18.47
C       4.37      16.66       2.06
C       0.60       1.91       1.48
C       1.07       7.74      17.91
C       5.31       4.51       5.39
C       3.41       7.70       4.75
Cl       3.07       5.44       2.77
Cl       2.46      16.21      15.24
Cl       6.96      18.06      12.84
O       3.50      13.64      11.18
O       5.79      13.19       8.39
O       6.86      10.73       8.89
O       5.77      13.69      11.08
O       6.83      11.27      11.58
O       3.51      13.24       8.46
O       4.64      11.42      10.11
O       2.42      11.21      11.56
O       2.45      10.76       8.85
O       1.30      12.99       9.85
O       5.50      16.93       1.55
O       3.67      22.99      18.87
O       2.20       7.48      18.43
O       3.22      16.92       1.57
O       1.74       1.48       1.13
O       5.95      22.99      18.83
O       4.40       7.31      19.88
O       6.15       1.51       1.08
O       6.61       7.47      18.39
O       1.01      17.14       0.16
O       5.05       3.43       4.87
O       3.93       8.28       5.69
