136

Zn      -8.72       3.88      16.46
Zn      14.28       7.17       0.26
Zn       7.28       2.81      14.55
Zn      -1.70       8.11       2.11
H       2.64      -3.30       8.82
H      -0.70       4.96       2.26
H      -2.23      12.34       8.65
H       6.03      -1.15       8.43
H      -4.62      14.45       2.23
H      -3.43      15.61       1.55
H      -2.99      14.62       2.99
H       8.55      -4.45      15.05
H       9.85      -3.57      14.19
H       8.17      -3.54      13.55
H       1.29      12.28       9.96
H       7.54      -3.53       8.28
H      -0.29      11.42      10.09
H       0.66      11.79      11.57
H       3.88      -0.25       7.07
H       2.40      -1.26       7.17
H       2.98      -0.67       5.58
H      12.61       4.24       4.28
H      -5.43       5.08      12.70
H       2.95       5.17      15.94
H       2.25       4.02      14.75
H       3.14       5.47      14.18
H      11.71       8.16       1.71
H       3.32       6.65       1.79
H       2.57       5.73       0.45
H       2.34       5.18       2.14
H       1.04       9.90       6.01
H       6.31       0.58      10.20
H      -5.84       3.18      15.37
H      -0.78      13.29       2.24
H       5.42      -2.14      14.91
H      -3.42       8.72       5.01
H       8.90       2.00      11.73
H       6.21       5.91      14.16
C      -3.63      13.21       0.13
C       4.56      -2.78       7.48
C      -1.82      13.35       8.62
C       5.62      -2.16       8.48
C      -0.60      12.60       5.15
C       4.84      -1.48      12.00
C       6.45      -3.48       8.41
C       3.73      -3.35       8.70
C      -0.97      13.92       7.40
C       4.78      -2.72       9.70
C      -0.70      13.21       6.21
C       9.12      -2.10      16.31
C       4.65      -2.02      10.92
C      -5.59       6.80       5.73
C      11.03       3.96      10.93
C      13.60       6.78       3.23
C      -8.15       4.03      13.44
C      -6.05       6.25       6.74
C      11.51       4.46       9.92
C      -6.53       5.64       7.83
C      12.00       5.06       8.82
C      -3.89       1.42      16.60
C      -5.06       7.25       4.53
C       9.61       9.56       0.24
C      -2.66       1.57      16.61
C       8.40       9.38       0.21
C       5.87       8.91       0.01
C       7.08       9.14       0.12
C       6.54       7.98      16.23
C      17.79       2.99       0.15
C       6.05       9.11      16.35
C      18.24       1.85       0.04
C       5.56      10.35      16.48
C      10.49       3.53      12.15
C      11.50      -6.53      16.60
C       4.62       3.15      15.90
C       1.03       7.83       0.80
C      -0.94      10.46       3.86
C       5.88       0.52      13.07
C      11.93       8.83       0.88
C      -6.13       2.41      16.07
C      -0.87      12.29       2.64
C       5.65      -1.20      14.42
C      -3.98       8.14       4.28
C      11.01       9.62       0.16
C       9.47       2.60      12.43
C       6.92       5.83      14.98
C      -1.40       5.12       1.46
C       7.12       6.73      16.05
C      -1.69       4.27       0.36
C      -3.55      14.64       2.04
C       8.79      -3.56      14.45
C       0.38      12.16      10.57
C       3.29      -1.03       6.56
C       3.08       4.70      14.96
C      -5.28       1.44      16.66
C       2.45       6.06       1.49
C      -0.72      11.85       3.97
C       5.32      -0.77      13.11
C       5.62      -4.06       9.61
S      12.44       5.61       2.66
S      -7.14       5.35      13.95
S      -0.68       9.17       4.98
S       5.75       1.77      11.88
N     -10.48       4.92      16.23
N      -7.38       2.29      16.54
N      -1.19      11.25       1.84
N       6.36      -0.24      15.05
N      -3.68       8.15       2.96
N       9.22       2.59      13.76
N       7.74       4.78      15.08
N      -2.12       6.24       1.38
N      16.08       6.20       0.24
N      14.43       7.32       2.33
N      -8.91       3.45      14.37
N       5.89       2.74      16.04
N      -0.20       8.35       0.71
N      -1.23      10.12       2.59
N       6.52       0.81      14.21
N      13.17       8.95       0.37
O      -2.98      13.58       1.24
O      -5.64       4.86      13.64
O       4.34       4.01      14.90
O       1.23       6.81       1.65
O      -1.40       9.37       6.21
O      -0.83       7.93       4.23
O       0.90       9.23       5.30
O       4.42       1.85      11.35
O       6.40       2.95      12.44
O       6.75       1.31      10.69
O       8.46      -2.36      15.17
O      -0.29      13.41      10.77
O       4.07      -2.21       6.33
O      11.13       5.93       3.15
O      12.70       5.43       1.25
O      12.93       4.25       3.35
O      -7.41       6.53      13.18
O      -7.21       5.37      15.40
