72

Zn       8.46       5.71       6.14
Zn       5.66       6.16       6.48
H       4.65       6.03       2.53
H       9.41       5.63      10.11
H       8.74       5.01       1.73
H       5.31       6.48      10.93
H       4.59       1.99       7.33
H       9.53       9.87       5.28
H       5.80      10.42       7.33
H       8.32       1.45       5.28
H      10.48       7.10       4.74
H       3.65       4.75       7.85
H       1.86       6.24       0.38
H       1.51       5.31       2.55
H       3.12       4.55       2.45
H       1.81       4.01       1.36
H      10.92       4.82      11.03
H       3.29       5.99      10.74
H      12.59       6.96      12.19
H      11.64       7.15      10.70
H      12.08       9.59       5.45
H       3.99       9.27       6.12
H       3.83      10.00       4.52
H       4.44       7.58       4.32
H       2.84       7.89       3.62
H      10.12       2.60       6.40
H       2.03       2.24       7.05
H      10.28       1.82       7.98
H      11.33       3.88       8.93
H       9.71       4.23       8.27
C       6.70       3.34       6.33
C       7.42       8.52       6.30
C       7.64      10.00       6.30
C       6.48       1.86       6.31
C       2.80       6.84       5.46
C      11.33       5.00       7.13
C      11.14       6.57       5.43
C       2.99       5.28       7.16
C       7.08       5.99       8.93
C       7.04       5.80       3.70
C       6.72       5.57       2.25
C       7.36       6.06      10.40
C       3.71       5.61       0.00
C       7.43       4.92       0.03
C       6.32       6.34      11.32
C       7.73       5.16       1.36
C       8.64       5.83      10.85
C       5.41       5.70       1.82
C       8.95       5.91      12.23
C       5.06       5.45       0.48
C       5.32       1.32       6.88
C       8.80      10.55       5.73
C       6.69      10.85       6.88
C       7.43       1.01       5.73
C       2.26       4.89       1.86
C      12.18       6.41      11.33
C       3.40       7.87       4.56
C       3.39       9.27       5.21
C      10.74       3.94       8.00
C      10.73       2.57       7.31
N      10.56       5.68       6.25
N       3.57       6.17       6.35
N       2.67       5.93       0.90
N      11.32       5.33      11.82
O       7.89       3.75       6.11
O       6.23       8.11       6.53
O       5.69       4.08       6.55
O       8.43       7.78       6.07
O       8.08       5.82       8.17
O       6.05       6.04       4.47
O       5.87       6.12       8.54
O       8.26       5.71       4.07
