72

Al       5.51       6.67       8.41
Al       2.19       6.69       8.48
Al       2.18       0.01      16.93
Al       5.50       0.04      16.93
H       2.16      10.53      13.97
H       5.85      11.15      13.33
H       2.26       9.41      11.86
H       5.37       9.34       5.12
H       5.35      10.50       3.04
H       1.66      11.17       3.58
H       5.82       2.77      13.86
H       2.79       2.49      13.40
H       5.88       4.18      11.84
H       2.81       3.93      11.75
H       3.30       3.16       3.01
H       5.88       3.94       5.57
H       2.83       3.90       5.07
H       5.07       7.81      11.75
H       2.60       7.84       5.13
H       3.88       8.40       8.85
H       0.53       4.99       8.92
H       3.95      11.91       0.56
H       0.93       1.67       0.55
C       3.90       5.11      10.30
C       3.79       5.09       6.64
C       0.51       8.15       6.56
C       0.53       8.21      10.32
C       1.21      10.44      13.42
C       0.15      11.16      13.86
C       1.25       9.61      12.24
C       0.24       8.97      11.57
C      -0.30       9.57       4.70
C       0.75       8.95       5.32
C       6.32      10.43       3.54
C       0.70      11.18       3.07
C       4.88       2.96      13.34
C       3.77       2.38      13.85
C       4.91       3.82      12.17
C       3.83       4.23      11.48
C       5.14       2.75       3.91
C       4.22       2.58       2.93
C       4.97       3.66       5.04
C       3.80       4.15       5.50
C       4.28       1.68       1.76
C       3.79       1.53      15.06
C       0.18      11.97      15.10
C       0.64      12.00       1.85
C       5.47       8.83      11.96
C       2.16       8.82       4.87
Cl      -0.00       1.90       3.96
O       2.66       5.60       6.96
O       5.04       5.58       9.95
O       6.13       8.04       9.60
O       4.89       5.32       7.24
O       6.00       7.71       6.85
O       2.79       5.35       9.71
O       3.85       7.52       8.46
O       1.55       8.00       7.27
O       1.70       7.82      10.02
O       0.53       5.85       8.48
O       4.90       1.33      15.65
O       3.15       1.44       1.20
O       1.78      12.44       1.46
O       2.66       1.07      15.42
O       1.29      12.16      15.70
O       5.41       1.23       1.40
O       3.94      12.71       0.02
O       5.70      12.44      15.46
O       6.17      12.21       1.26
O       0.52       0.86      16.97
O       4.74       9.66      12.49
O       2.83       9.65       4.25
