146

Cu       5.51      11.01       2.74
Cu       8.39       6.83      13.52
Cu      12.71      10.58       4.64
Cu       1.19       7.26      11.62
Cu      12.51       9.87       1.39
Cu       1.39       7.97      14.87
H       8.46      12.55       3.26
H       5.44       5.29      13.00
H       2.75       0.78       0.17
H      11.15      17.06      16.08
H       5.52       8.00      15.84
H       8.38       9.84       0.42
H       7.25       2.50       0.56
H       6.65      15.34      15.70
H       7.71       1.36       1.82
H       6.19      16.47      14.43
H       9.17       3.07       2.81
H       4.73      14.77      13.45
H       9.34       4.97       4.40
H       4.56      12.87      11.86
H       5.08       5.58       4.14
H       8.82      12.26      12.12
H       4.91       3.70       2.54
H       8.99      14.14      13.71
H       5.31       8.30       4.30
H       8.59       9.54      11.95
H       8.73      10.27       2.80
H       5.17       7.57      13.46
H       9.55       8.07       4.26
H       4.35       9.77      12.00
H       6.46       6.68       5.95
H       7.45      11.16      10.30
H       8.22       6.53       5.93
H       5.68      11.31      10.32
H      11.11       8.36       6.24
H       2.79       9.48      10.02
H      12.10      12.32       7.26
H       1.80       5.52       9.00
H      10.66      11.17       9.37
H       3.24       6.67       6.88
H       9.97       8.70       9.81
H       3.93       9.14       6.45
H      10.10       7.56       8.47
H       3.80      10.28       7.78
H       7.70       7.28       9.84
H       6.20      10.56       6.41
H       8.61      10.30       6.90
H       5.29       7.53       9.35
H      10.84       7.24       2.02
H       3.06      10.60      14.24
H      12.47      14.74      14.64
H       1.43       3.10       1.62
H      10.96      12.43      14.08
H       2.94       5.41       2.17
H       9.78       5.09       1.16
H       4.12      12.75      15.10
H      10.35      10.42      15.67
H       3.55       7.42       0.58
H       8.11       7.46       1.50
H       5.79      10.38      14.75
H       8.22       9.92      14.90
H       5.68       7.92       1.36
W       3.04      12.03       2.56
W      10.86       5.81      13.69
C       7.97      12.86       2.34
C       5.93       4.98      13.91
C       3.67       0.92       0.73
C      10.23      16.92      15.53
C       4.76       1.70       0.42
C       9.14      16.14      15.84
C       6.98       2.14       1.56
C       6.92      15.70      14.69
C       7.03       3.27       2.56
C       6.87      14.57      13.70
C       8.28       3.63       3.09
C       5.62      14.21      13.16
C       8.37       4.70       3.99
C       5.53      13.14      12.27
C       7.22       5.40       4.38
C       6.68      12.44      11.88
C       5.98       5.03       3.85
C       7.92      12.81      12.40
C       5.89       3.97       2.95
C       8.01      13.86      13.31
C       6.35       8.56       4.09
C       7.55       9.28      12.16
C       8.14       9.54       3.33
C       5.77       8.30      12.93
C       8.56       8.45       4.05
C       5.34       9.39      12.20
C       7.33       6.60       5.29
C       6.57      11.24      10.96
C      11.16       9.30       6.78
C       2.74       8.54       9.48
C      11.67      11.33       7.35
C       2.23       6.51       8.90
C      10.94      10.80       8.39
C       2.96       7.04       7.86
C       9.78       8.58       8.73
C       4.12       9.26       7.53
C       8.32       8.77       8.41
C       5.58       9.07       7.85
C       7.37       8.00       9.08
C       6.53       9.84       7.17
C       7.89       9.70       7.45
C       6.01       8.14       8.81
C      10.91       7.46       0.96
C       2.99      10.38      15.30
C      12.00      14.02      15.30
C       1.91       3.82       0.96
C      11.24      12.91      15.01
C       2.66       4.93       1.24
C       9.53       5.52       0.17
C       4.37      12.32      16.08
C       8.06       5.83       0.08
C       5.84      12.01      16.17
C       7.49       6.86       0.84
C       6.41      10.98      15.42
C       7.78      10.72      15.49
C       6.12       7.12       0.76
S       4.03      10.74       0.96
S       9.87       7.10      15.29
S       4.18      11.72       4.50
S       9.72       6.12      11.75
S      11.43      11.20       2.85
S       2.47       6.64      13.40
I       2.58       7.75       4.04
I      11.33      10.09      12.21
N       6.76      12.47       1.93
N       7.14       5.37      14.32
N       5.66       1.52       1.45
N       8.24      16.32      14.81
N       6.75       9.60       3.36
N       7.15       8.24      12.89
N       7.42       7.85       4.54
N       6.48       9.99      11.72
N      11.80      10.39       6.35
N       2.10       7.45       9.90
N      10.64       9.50       8.01
N       3.26       8.34       8.24
N      11.58       8.49       0.42
N       2.32       9.35      15.83
N      10.91      12.34      16.23
N       2.99       5.50       0.02
O      10.61       1.53       2.14
O       3.29      16.31      14.11
