220

Zn      -7.58      -4.33      15.04
Zn       8.01      -4.28      14.81
Zn      -0.18      -0.06       1.91
Zn      -0.01       9.93      14.97
Zn       7.87       4.89       8.43
Zn      11.06       4.93       8.36
Zn       9.40       7.70       8.36
Zn       9.38       5.76       5.80
H      10.78      -0.42      13.48
H      10.20      -1.04      11.95
H       8.05      -0.24      13.91
H       8.07      -0.04      12.17
H      10.40       3.01      12.28
H      11.05       1.40      12.31
H      10.16       0.96      10.21
H       8.52       1.34      10.78
H      18.47       6.51       0.98
H       7.88       1.58      15.59
H       6.36       1.09      12.83
H       4.54       2.75      12.78
H       5.03       5.17      13.14
H       7.38       5.90      13.56
H       9.20       4.23      13.62
H       2.36       2.59       3.93
H       3.75       1.56       3.70
H       3.44       3.80       1.69
H       4.91       3.15       2.37
H       4.47       4.98       5.72
H       3.73       3.44       5.42
H       5.83       2.47       5.29
H       6.23       3.47       3.89
H      19.77       6.00       2.77
H      21.28       6.03       1.90
H       5.58       4.90       1.36
H       6.98       6.82       0.73
H       7.03       8.87       2.14
H       5.64       8.96       4.22
H       4.24       7.03       4.86
H       4.82       7.27      10.12
H       5.77       7.52      11.56
H       5.96       9.74       9.51
H       5.88       9.87      11.26
H       2.11       9.29      11.42
H       3.25       7.98      11.45
H       4.11       8.77      13.46
H       4.50      10.34      12.74
H       3.49       9.22       6.97
H       4.25      10.52       7.85
H       5.64      11.90      10.70
H      -4.21      -2.69      10.70
H      12.25      -1.99      10.26
H      19.74      13.25       9.79
H      20.35      10.86       9.81
H      15.27       3.51       1.71
H      14.38       2.24       2.52
H      16.91       3.32       3.86
H      15.52       2.57       4.61
H      13.26       5.65       3.96
H      13.51       4.41       2.77
H      12.38       2.92       4.14
H      13.63       3.08       5.38
H      17.44       6.96       3.01
H      17.41       6.02       4.47
H      16.50       3.41       6.27
H      16.81       4.30       8.55
H      15.96       6.56       9.15
H      14.77       7.92       7.43
H      14.44       7.03       5.15
H      13.08       6.83      11.46
H      13.84       7.96      10.37
H      11.37       8.96      11.83
H      12.81       9.86      11.36
H      14.94       8.38      14.19
H      14.76       7.57      12.67
H      15.84       9.32      11.60
H      14.63      10.48      12.16
H      10.60       6.81      14.60
H      10.67       8.54      14.33
H      11.89      11.26      12.64
H       2.31      -3.83      14.18
H      12.14       1.10       0.94
H      22.36      15.94       1.78
H      22.72      14.05       0.24
H      10.29       9.33       3.82
H       8.69       9.97       4.11
H      10.86      10.84       6.05
H       9.49      11.76       5.46
H      11.10      12.47       2.06
H      10.21      11.00       2.33
H       8.26      12.18       2.78
H       9.05      13.17       4.01
H      14.07      10.03       4.71
H      13.32      11.34       5.58
H      10.54      13.34       6.34
H       2.24      -1.43       6.93
H       4.03      -0.40       5.55
H      14.11      15.37       3.53
H      13.16      13.17       2.92
C       9.72      -2.23      13.62
C       9.90      -0.86      12.99
C       8.69       0.07      13.08
C       9.10       1.56      13.25
C      10.12       1.96      12.16
C       9.55       1.72      10.74
C       9.53       2.94       9.86
C       9.77       1.60      14.66
C       7.92       2.53      13.22
C       6.60       2.14      12.99
C       5.56       3.08      12.96
C       5.83       4.43      13.16
C       7.15       4.84      13.40
C       8.18       3.90      13.42
C       2.32       1.47       2.16
C       3.10       2.27       3.17
C       3.89       3.46       2.63
C       3.94       4.64       3.64
C       4.45       4.15       5.01
C       5.86       3.51       4.92
C       6.91       4.22       5.75
C       2.47       5.12       3.80
C       4.81       5.81       3.17
C       5.58       5.78       2.00
C       6.38       6.87       1.64
C       6.41       8.02       2.43
C       5.63       8.07       3.59
C       4.84       6.98       3.95
C       6.89       7.31       9.78
C       5.67       7.84      10.51
C       5.44       9.35      10.39
C       3.93       9.69      10.31
C       3.18       9.07      11.51
C       3.70       9.60      12.86
C       2.62      10.24      13.70
C       3.40       9.02       9.01
C       3.64      11.19      10.26
C       4.60      12.18      10.50
C      -4.97      -3.44      10.50
C      12.51      -3.04      10.25
C      20.77      12.96      10.00
C       2.32      11.61      10.00
C      16.29       1.68       1.84
C      15.38       2.71       2.46
C      15.82       3.27       3.82
C      15.20       4.67       4.10
C      13.68       4.65       3.83
C      12.94       3.65       4.75
C      11.92       4.31       5.65
C      15.88       5.65       3.11
C      15.44       5.15       5.54
C      16.11       4.40       6.51
C      16.29       4.91       7.81
C      15.82       6.17       8.15
C      15.15       6.93       7.18
C      14.97       6.43       5.90
C      11.90       7.35       9.81
C      12.89       7.75      10.88
C      12.47       8.91      11.79
C      13.03       8.75      13.23
C      14.56       8.52      13.18
C      15.31       9.69      12.49
C      16.34      10.32      13.39
C      12.37       7.47      13.81
C      12.74       9.94      14.14
C      12.17      11.14      13.69
C       2.74      -4.76      14.56
C      12.30       0.26       0.27
C      22.08      16.04       0.73
C      13.08       9.85      15.50
C       9.42       8.68       5.61
C       9.66       9.78       4.60
C      10.29      11.07       5.15
C      11.21      11.75       4.10
C      10.44      11.97       2.78
C       9.15      12.80       2.98
C       9.07      14.00       2.07
C      12.37      10.75       3.84
C      11.78      13.09       4.58
C      11.32      13.77       5.71
C       2.62      -1.95       6.05
C       3.62      -1.37       5.28
C      13.32      14.93       4.15
C      12.79      13.69       3.80
N      18.10       6.73       0.06
N      20.75       5.79       2.73
N       3.83       9.60       7.85
N      17.10       6.14       3.51
N      11.07       7.62      14.20
N      13.27      10.64       4.85
O      18.79      11.78      15.60
O       8.55      -2.58      13.99
O      10.79      -2.92      13.74
O      10.62       3.60       9.75
O       8.43       3.21       9.28
O      10.99       1.55      14.83
O       2.49       1.72       0.92
O       1.52       0.60       2.65
O       6.63       4.44       6.98
O       7.99       4.53       5.16
O       1.78       4.86       4.79
O       7.72       8.14       9.28
O       6.96       6.03       9.73
O       1.52       9.60      13.80
O       2.90      11.36      14.25
O       2.71       8.00       9.01
O      17.26       1.23       2.53
O      16.00       1.35       0.64
O      11.10       5.11       5.10
O      11.97       4.00       6.89
O      15.41       5.93       2.01
O      10.85       8.05       9.65
O      12.22       6.30       9.16
O      17.16       9.53      13.96
O      16.31      11.59      13.50
O      12.94       6.37      13.82
O       9.61       8.95       6.85
O       9.06       7.57       5.12
O       9.33      13.80       0.84
O       8.74      15.11       2.61
O      12.43      10.04       2.83
O       9.44       5.85       7.75
