90

Ni       3.46       7.07       5.33
Ni       1.21       6.78       3.45
Ni      -1.04       8.55       4.15
Ni      -1.21       0.40       7.60
Ni       1.04       0.68       9.48
Ni       3.29      -1.09       8.79
H       1.04      -0.74      12.68
H       3.29      -3.14       5.95
H      -1.21       3.88       7.24
H       1.21       8.21       0.25
H      -1.04      10.61       6.99
H       3.46       3.58       5.69
H       3.28       8.02       7.56
H       1.03       4.38       3.17
H      -1.22      10.00       2.21
H      -1.03      -0.55       5.38
H       1.23       3.09       9.77
H       3.47      -2.54      10.72
H       2.13       5.46       8.11
H      -0.12       5.18       0.67
H      -2.37      11.77       4.15
H       0.12       2.01       4.82
H       2.37       2.29      12.26
H       4.62      -4.30       8.79
H       2.57       6.68       9.35
H       0.32       3.49       1.12
H      -1.93      12.22       2.47
H      -0.32       0.79       3.58
H       1.93       3.97      11.82
H       4.18      -4.76      10.46
H      -2.90       5.86       8.37
H       1.60       4.75       0.90
H      -0.65      11.78       3.67
H       5.15       1.61       4.57
H       0.65       2.72      12.04
H       2.90      -4.32       9.27
C       2.07      -0.43      12.80
C       4.33      -3.40       6.17
C      -0.18       3.83       6.91
C       0.18       7.89       0.14
C      -2.08      10.87       6.77
C       2.43       3.64       6.03
C       3.85       7.12       2.28
C       1.60       9.40       5.03
C      -0.65       5.88       5.63
C      -1.60       0.35      10.65
C       0.65      -1.93       7.91
C       2.90       1.58       7.31
C       4.80       7.33       1.15
C       2.55      10.28       5.77
C       0.30       4.80       6.02
C      -2.55       0.14      11.79
C      -0.30      -2.81       7.16
C       1.95       2.67       6.92
C       2.85      -0.31      11.63
C       5.10      -2.45       6.85
C       0.60       2.76       7.39
C      -0.60       7.78       1.30
C      -2.85       9.92       6.08
C       1.65       4.71       5.55
C       2.83       6.26       8.37
C       0.58       4.56       1.24
C      -1.67      11.58       3.33
C      -0.58       1.21       4.57
C       1.67       2.91      11.69
C       3.92      -4.11       9.61
O       4.30       7.28       3.48
O       2.05       8.28       4.57
O      -0.21       6.84       4.89
O      -2.05       0.18       9.46
O       0.21      -0.81       8.37
O       2.46       0.63       8.05
O       2.66       6.76       2.03
O       0.41       9.79       4.84
O      -1.84       5.85       6.06
O      -0.41       0.70      10.90
O       1.84      -2.32       8.09
O       4.10       1.62       6.88
O       2.27      -0.64      10.47
O       4.52      -1.28       7.15
O       0.02       1.92       8.25
O      -0.01       8.10       2.47
O      -2.26       8.75       5.79
O       2.24       5.55       4.68
O       2.68       7.28       7.35
O       0.42       4.93       2.63
O      -1.83      10.19       2.96
O      -0.42       0.19       5.58
O       1.83       2.54      10.30
O       4.08      -2.73       9.98
