120

Al       6.03       7.95      10.90
Al       2.70       7.94      10.88
Al       2.19      19.35       0.01
Al       5.60      -3.47      21.78
H       5.79       3.93      16.22
H       2.42      11.95       5.57
H       2.82       2.26      14.70
H       6.11      13.63       7.07
H       1.32      12.36      11.77
H       5.02       3.60       9.93
H       1.29      14.34      13.29
H       5.03       1.61       8.42
H       0.54       9.59      17.23
H       3.84       6.30       4.54
H       0.94      15.13      17.90
H       4.32       0.77       3.86
H       6.76       7.26      19.47
H       3.49       8.64       2.29
H       4.73      -0.24      15.79
H       1.35      16.13       5.99
H       4.36       8.01      12.66
H       1.03       7.85       9.13
H       3.92      -2.94      20.13
H       0.52      18.81       1.65
C       4.39       6.14       9.28
C       1.03       9.75      12.49
C       4.35       9.75       9.28
C       1.06       6.14      12.51
C       6.56       2.20      17.23
C       3.19      13.68       4.56
C       0.88       1.19      17.33
C       4.16      14.70       4.46
C       1.95       1.23      16.39
C       5.24      14.66       5.40
C       2.00       2.24      15.42
C       5.29      13.65       6.36
C       0.98       3.21      15.34
C       4.28      12.67       6.45
C       6.59       3.19      16.26
C       3.22      12.69       5.53
C       0.77       0.22      18.34
C       4.04      15.66       3.45
C       1.03       4.21      14.33
C       4.33      11.68       7.45
C       1.05       5.07      13.47
C       4.35      10.81       8.31
C       0.63      -0.58      19.24
C       3.89      16.47       2.55
C       1.18      13.34      13.69
C       4.79       2.60       8.04
C       1.04      10.96      13.39
C       4.42       4.96       8.37
C       0.47      11.61      19.93
C       3.61       4.27       1.86
C       0.43      10.42      19.18
C       3.64       5.47       2.60
C       0.57      10.52      17.79
C       3.82       5.38       3.98
C       0.74      11.75      17.12
C       4.00       4.15       4.65
C       0.78      12.94      17.92
C       4.03       2.95       3.86
C       0.88      11.87      15.68
C       4.21       4.03       6.09
C       1.03      13.17      15.08
C       4.51       2.75       6.66
C       1.03      14.30      15.96
C       4.52       1.62       5.79
C       0.92      14.22      17.30
C       4.28       1.68       4.46
C       0.89      10.80      14.75
C       4.14       5.09       7.02
C       1.19      12.24      12.85
C       4.78       3.69       8.88
C       0.64      12.84      19.32
C       3.81       3.04       2.46
C       3.86      17.53       1.58
C       0.60      -1.64      20.21
C       3.80       1.81       1.60
C       0.66      14.07      20.19
C       0.24       9.10      19.83
C       3.51       6.79       1.94
C       3.00       0.17      16.42
C       6.28      15.72       5.36
O       3.21       9.36       9.68
O       6.58       6.62      12.19
O       5.52       6.54       9.70
O       2.15       9.26      12.17
O       5.49       9.29       9.62
O       2.20       6.51      12.08
O       6.55       9.35      12.11
O       3.26       6.63       9.58
O       4.36       7.94      11.69
O       1.03       7.95      10.09
O       4.94       1.35       1.28
O       1.80      14.52      20.51
O       2.72      17.95       1.21
O       6.12      -2.06      20.58
O       2.66       1.35       1.28
O       6.19      14.55      20.50
O       1.73      -2.09      20.59
O       4.99      17.96       1.19
O       3.99      15.94      20.97
O       0.46      -0.05       0.81
O       6.75       8.91      21.03
O       0.24       8.07      18.93
O       3.36       6.99       0.74
O       3.57       7.83       2.83
O       2.90      -0.91      16.98
O       4.11       0.53      15.71
O       6.18      16.79       4.79
O       0.74      15.37       6.07
F       5.55       2.20      18.12
F       2.17      13.69       3.67
F       1.15      15.53      15.37
F       4.79       0.41       6.36
F       0.76       9.51      15.19
F       3.81       6.35       6.60
F       0.35      11.59      21.27
F       3.42       4.29       0.53
