121

Al      -3.12       5.26      13.66
Al       7.49       2.54      13.27
Al       5.98       5.15      13.24
Al      -2.15      -1.39      26.14
Al       1.04      -1.38      26.53
Al      -0.40       1.27      26.59
H       4.28       0.03      18.48
H      -1.34       1.24       5.08
H       0.73       4.02       8.65
H       2.88       3.86      21.35
H       3.41       4.24      18.94
H      -3.14       6.36       7.47
H       1.18      -0.31       5.53
H      -5.41      10.00       7.90
H      10.17       1.00       7.45
H       2.82       4.55       7.90
H       1.64       5.87       7.58
H       3.13       5.74       6.59
H      -3.11       9.19      19.44
H       1.83      -1.29      20.78
H      -2.95       8.39      21.05
H      -2.34       7.05       3.94
H      -1.46       5.01       4.48
H      -2.82       4.78       5.60
H      -1.31       5.55       6.16
H      -1.08       6.29      13.16
H       2.12       8.28      26.61
C      -3.14       2.88      15.49
C       3.19       3.03      20.71
C       3.47       3.24      19.37
C       3.86       2.16      18.55
C       3.26       1.74      21.28
C       2.90       1.49      22.62
C       4.20       2.37      17.20
C       2.55       1.25      23.76
C      -5.96       7.69      23.04
C      -5.90       7.45      21.83
C      -5.80       7.26      20.51
C       5.14       2.90      14.79
C      -5.70       7.16      19.29
C      -5.57       7.05      17.96
C      -5.45       6.93      16.74
C      -2.43       1.56      23.13
C      -2.54       1.76      21.92
C      -2.63       1.95      20.60
C      -2.70       2.10      19.38
C      -2.78       2.29      18.06
C      -2.88       2.48      16.85
C       5.34       2.93       3.35
C      -5.26       6.52      15.38
C       5.36       2.97       4.58
C       5.37       3.01       5.92
C       5.37       3.03       7.15
C       5.39       3.06       8.49
C       5.42       3.10       9.72
C      -4.68       7.40      10.32
C      -3.52       7.27       7.03
C      -3.23       7.59       5.69
C      -4.52       9.66       5.96
C      -4.81       9.34       7.28
C      -2.51       2.92      11.78
C      -4.30       8.14       7.82
C      -3.73       8.82       5.16
C      -3.42       9.19       3.84
C      -4.53       7.78       9.17
C      -3.14       9.52       2.69
C      -1.75       2.60      10.60
C      -1.31       1.70       7.18
C      -0.88       1.83       5.87
C       0.75       3.52       6.54
C       0.31       3.40       7.86
C       5.69       3.27      11.12
C      -0.73       2.51       8.18
C       0.12       2.75       5.51
C       0.47       2.93       4.16
C      -1.25       2.51       9.49
C       0.70       3.07       2.97
C      -6.14       8.21      24.36
C       1.90       0.87      24.98
C      -2.15       1.11      24.46
C      -2.99      10.16       1.42
C       5.06       2.78       1.95
C      -4.74       6.75      11.59
C       1.12       2.99       1.60
C       4.53       2.56      16.03
C       3.95       0.86      19.11
C       3.66       0.65      20.45
C       2.36       5.17       7.12
C       2.86      -1.57      20.53
C      -2.01       5.46       5.31
N      -2.50       6.75       4.89
O      -4.08       6.37      14.98
O       6.40       2.37      11.69
O       5.25       4.34      11.67
O       6.35       6.57      12.11
O      -4.75       4.30      13.38
O      -2.54      -0.05      24.76
O      -7.32       8.50      24.70
O      -5.07       8.37      25.06
O       2.15      -0.29      25.46
O       1.05       1.70      25.47
O      -1.47       1.90      25.21
O      -2.77       4.04      15.16
O       0.74       1.98       0.94
O      -4.06      10.52       0.84
O      -1.80      10.38       0.98
O       5.42       1.68       1.40
O       4.40       3.72       1.39
O       1.91       3.92       1.18
O      -0.48      -0.49      26.43
O      -3.77       2.04      14.76
O       5.99       2.07      14.30
O       4.85       4.04      14.28
O       5.93       6.28      14.71
O      -3.65       6.36      12.09
O      -2.27       4.03      12.34
O       8.86       2.06      12.14
O       1.73       4.36       6.13
O       3.77      -0.58      21.03
O      -1.65       6.16      13.93
O       8.60      -2.20      25.84
