110

Zn      11.86       9.83       9.71
Zn      10.87       7.23       9.65
H      18.95      12.10       8.63
H       3.75       4.90       8.60
H      13.39      10.09      18.04
H      11.82       6.03       1.31
H      14.19      11.11       8.41
H       8.44       5.94      10.82
H      15.27      13.39       8.33
H       7.45       3.63      10.93
H      12.33      14.68      11.22
H      10.60       2.34       8.27
H      11.40      12.35      11.18
H      11.48       4.69       8.32
H       6.47       2.06       9.08
H      16.38      14.95      10.30
H      15.83       9.06       9.32
H       6.88       7.93       9.24
H      14.70       4.95       9.16
H       8.01      12.04       9.14
H       5.62      12.71       8.81
H      17.09       4.28       8.80
H      17.18      10.41       8.71
H       5.52       6.59       8.66
H      10.06       7.41       5.22
H      11.01      10.33      14.18
H      10.47       7.26       2.77
H      11.43      10.12      16.63
H      14.44       8.84       3.36
H      13.30       6.30      15.96
H      13.93       9.16       5.77
H      12.70       6.45      13.55
H      14.07      10.92       0.66
H      13.70      10.32       2.20
H      11.70       5.73      17.14
H      11.60       5.01      18.67
H      11.84      15.67       9.14
H       4.56       0.57       9.01
H      18.28      16.43      10.40
H      11.02       1.33      10.27
C      11.50       8.47      12.26
C      11.65       8.51       7.09
C      18.23      10.09       8.76
C       4.48       6.90       8.74
C      19.21      11.05       8.72
C       3.49       5.95       8.71
C      11.00       7.75       4.79
C      11.48       9.44      14.59
C      11.25       7.65       3.43
C      11.74       9.33      15.95
C      12.47       8.08       2.87
C      12.36       8.19      16.49
C      13.45       8.59       3.74
C      12.74       7.16      15.59
C      13.18       8.74       5.10
C      12.43       7.25      14.24
C      11.95       8.34       5.64
C      11.80       8.39      13.72
C      13.07       9.13       0.63
C      12.17       6.98      18.71
C      13.08       9.22      18.63
C      12.17       6.88       0.71
C       8.97       9.50       9.50
C      13.75       7.48       9.55
C      12.58       8.10      17.95
C      12.63       8.02       1.40
C      13.83      11.94       9.02
C       8.88       5.10      10.29
C      14.42      13.20       8.98
C       8.34       3.82      10.33
C      13.87      14.24       9.75
C       8.96       2.77       9.63
C      12.77      13.93      10.56
C      10.11       3.09       8.88
C      12.25      12.64      10.56
C      10.59       4.39       8.89
C      13.60      16.71       9.37
C       9.25       0.29      10.01
C       7.07       1.19       9.38
C      15.78      15.81      10.01
C       8.42       1.40       9.67
C      14.43      15.61       9.71
C       7.56       9.93       9.22
C      15.16       7.06       9.27
C       5.90      11.66       8.89
C      16.81       5.33       8.90
C       7.22      11.30       9.08
C      15.49       5.69       9.10
C       6.57       8.96       9.12
C      16.14       8.03       9.17
C       5.22       9.30       8.91
C      17.49       7.70       8.93
C       4.87      10.68       8.83
C      17.83       6.31       8.83
C       4.18       8.30       8.83
C      18.53       8.70       8.84
N      12.76      11.67       9.78
N      10.00       5.38       9.59
N      13.45      10.34       1.22
N      11.55       5.87      18.13
N      12.30      16.55       8.92
N      10.55       0.45      10.47
O      11.47       9.63      11.72
O      10.83       7.70       7.62
O      11.30       7.37      11.65
O      12.24       9.47       7.70
O       9.90      10.35       9.33
O      12.83       6.62       9.32
O       9.12       8.29       9.87
O      13.58       8.66       9.98
