114

Zn      -2.15       8.20       1.37
Zn       9.01       0.32      14.74
Zn       8.70      12.34       7.47
Zn      -2.25      -3.22       7.48
Zn       8.39       0.49       0.78
Zn      -2.35       8.32      14.15
H      -5.05       9.26       3.90
H      10.91      13.28       3.04
H      -3.89      12.63       2.65
H      -5.43      13.86       3.94
H       6.76      -6.19      14.60
H       6.43      -2.85      14.81
H      12.01      -3.18       9.70
H      -4.45      -1.46      10.99
H      10.75      -1.29      11.11
H      12.03       9.35       3.15
H      -4.37       4.31      13.25
H       0.75      14.01       0.65
H      -6.36       2.73      13.60
H       0.83      11.53       1.04
H      -5.81       8.72      11.65
H      -0.65      -6.63      13.35
H      -7.88       9.34      10.26
H      -0.62      -5.62      10.92
H      10.69      -0.33       4.50
H      11.32      10.22       5.22
H       6.15      15.86       2.34
H       5.97      14.18       4.43
H      -5.70      10.60       5.71
H      -3.66      11.42       3.92
H      -4.77      12.96       5.31
H      12.50      12.61       1.45
H      11.57      11.12       1.36
H      10.34      11.62       3.30
H      12.93       5.27       4.02
H      11.70      -4.95      14.34
H      12.74       1.43       5.07
C      14.44       6.58       0.94
C      -6.64      12.16       4.55
C      -5.28      12.84       4.34
C      11.24      12.24       3.21
C       5.49      -4.73      15.38
C       5.74      -5.96      14.89
C      12.56       5.23       0.10
C      13.52       5.38       1.03
C      12.44      -2.51      10.45
C      -4.93      -2.19      10.34
C      11.54      -1.96      11.45
C      14.16      10.26       1.57
C      11.58      -2.18      12.78
C      -4.86       4.19      14.22
C      -4.74       5.16      15.15
C      -5.75       3.07      14.44
C       0.18      11.33       0.19
C      -8.15      11.90       9.31
C      -7.48      12.80       5.64
C       7.61      14.14       5.86
C      -4.11      -2.81       9.28
C       1.01      -7.93      13.95
C      -0.87      10.30       0.39
C       4.75      -7.05      14.74
C      10.50      -0.71       1.82
C      -3.99       6.42      14.98
C      -6.38       9.63      11.85
C      -0.05      -7.47      13.02
C      -7.31      10.08      10.82
C      -7.37      11.38      10.45
C      11.44      -1.02       4.10
C      11.47      -1.27       2.78
C      12.44      -1.58       5.00
C      10.72      -1.40      13.72
C       6.59      14.83       5.03
C      12.81       9.95       3.63
C      -6.41      10.67       4.88
C      -4.42      11.99       3.37
C      12.14      11.76       2.04
C      13.34      10.99       2.61
S      13.77       4.23       2.37
S      -5.92      -3.32      13.51
S      13.29      -0.39       6.07
Cl       9.99       4.78       0.35
O      -3.24       6.62       1.75
O      -1.65      -4.71       8.86
O      10.17      12.16       6.03
O      -7.13      13.95       6.10
O       7.32      12.93       6.20
O      14.78      -2.97       6.16
O      14.17      -3.92       8.81
O      -3.04      -2.18       8.91
O       0.86      -7.64      15.20
O      -4.11       9.18      13.46
O       9.79       1.86       0.04
O      14.15       7.45       0.07
O       5.04      -7.97      13.88
O       9.50      -0.03       2.28
O       4.62      16.80       0.60
O       1.77      16.25       0.37
O      -3.11       6.52      14.04
O      -3.56       9.54       2.01
O      13.88      10.38       0.32
O      -0.70       9.49       1.38
O      -7.92       1.40      15.01
O      -7.66      -1.48      14.95
O       9.77      -0.68      13.23
O       9.53      11.22       8.83
O      12.59       3.42       2.54
O      15.07       3.64       2.24
O      13.83       5.23       3.64
O      -5.58      -4.35      12.56
O      -4.91      -2.56      14.19
O      -6.83      -4.04      14.65
O      13.07      -0.74       7.44
O      14.59      -0.10       5.52
O      12.37       0.93       5.83
