92

Zn       3.41       5.55      11.87
Zn       6.13       5.54      11.94
H       6.79       5.56      16.19
H       2.49       5.68      16.22
H       6.53       9.66      13.23
H       2.67      10.07       9.56
H       1.64      10.04      11.02
H       2.77       1.55       9.72
H       1.75       1.52      11.18
H       8.36       4.74      13.84
H       1.20       4.66      13.78
H       1.20       7.62       9.50
H       1.17       5.98       8.77
H       8.31       6.06       8.81
H       5.30       8.72       1.21
H       5.03       8.91      22.52
H       2.94       6.42       5.07
H       2.91       6.40       7.58
H       6.78       4.51       7.61
H       6.81       5.54      18.70
H       5.76       2.80      14.72
H       5.80       1.25      15.59
H       7.23       2.30      15.59
H       7.59       0.42      14.00
H       7.50       1.95      13.12
C       4.90       2.96      12.11
C       4.37       3.17      23.14
C       4.63       2.98       0.71
C       4.76       4.16       1.42
C       4.91       5.37       0.69
C       5.06       6.61       1.37
C       5.20       7.79       0.65
C       4.92       7.99      23.10
C       4.71       4.17       2.91
C       5.07       6.67       2.85
C       3.77       6.00       5.64
C       4.80       5.44       9.25
C       3.75       5.98       7.03
C       4.83       5.45       7.75
C       5.94       4.94       7.06
C       5.93       4.95       5.68
C       4.86       5.46       4.95
C       5.87       5.56      18.15
C       5.86       5.57      16.76
C       4.65       5.61      16.06
C       3.44       5.64      16.76
C       3.47       5.62      18.14
C       4.74       8.14      11.90
C       4.67       5.58      18.85
C       3.82       0.81      11.53
C       4.85       1.47      12.19
C       5.81       0.65      12.85
C       5.77      10.28      12.74
C       4.75       9.62      12.02
C       3.79      10.44      11.44
C       2.54      10.47      10.57
C       2.59       1.03      10.67
C       8.92       6.08      10.95
C       4.66       5.62      14.56
C       8.92       5.12      12.98
C       0.63       5.06      12.95
C       0.62       6.02      10.91
C       0.72       6.63       9.53
C       8.83       6.68       9.55
C       4.80       6.82      20.93
C       4.49       4.32      20.91
C       4.50       4.34      22.40
C       4.65       5.57      23.11
C       4.79       6.79      22.41
C       6.91       1.24      13.71
C       6.39       1.93      14.97
N       4.66       5.57      20.29
N       4.88       5.44       3.51
N       8.19       5.63      11.96
N       1.35       5.50      11.89
O       3.78       3.56      12.11
O       4.35       3.31      20.24
O       4.53       3.18       3.59
O       5.23       7.71       3.47
O       6.04       3.51      11.99
O       3.65       5.42       9.80
O       5.93       5.47       9.86
O       3.61       7.57      11.69
O       5.86       7.54      12.02
O       3.54       5.74      13.96
O       5.79       5.49      14.00
O       4.92       7.85      20.28
F       4.24       1.97      22.56
F       2.30       5.64      18.84
F       4.49       1.79       1.30
F       8.31       7.97       9.48
F       7.00       4.44       5.00
