138

Al      11.27       6.70      14.35
Al       9.62       3.94      14.43
Al       8.06       6.51      14.39
Al       1.38       0.89       0.03
Al       5.16       1.41      28.72
Al       3.70       4.04      28.74
H       8.54       2.74      22.48
H       6.65       1.69      20.64
H       8.68       5.12      20.93
H       6.58       6.24      22.49
H       4.70       5.19      20.65
H       4.55       2.82      22.20
H       8.14       7.63      20.79
H       8.35       8.13      23.22
H       4.91       0.41      22.32
H      10.79      10.91      19.89
H      14.71       4.57      19.97
H      15.21       4.58      22.42
H      11.11       3.54      23.26
H      10.62       3.53      20.81
H       7.95       4.80       5.43
H       4.49       2.45       6.51
H       5.02       2.79       8.90
H      11.33       8.32       8.41
H      11.43       8.65       5.94
H       7.42      10.23       5.98
H       7.32       9.91       8.46
H       1.12       1.84       8.73
H       1.50       1.80       6.27
H      12.02       5.59       5.88
H      11.64       5.63       8.34
H      13.18       7.78      15.15
H      18.20      10.70       0.91
C      11.57       4.42      16.34
C       7.46       4.43      16.23
C       9.37       8.05      16.30
C      11.60       4.32      12.55
C       7.57       4.42      12.50
C       9.32       8.05      12.49
C       6.63       2.70      21.06
C       7.69       3.29      22.06
C       6.23       3.72      25.55
C       7.03       4.18      17.58
C       5.47       3.33      21.90
C       6.53       3.91      22.94
C       5.55       4.65      21.07
C       6.71       4.02      20.19
C       6.60       5.23      22.06
C       7.76       4.61      21.23
C       6.39       3.82      24.34
C       6.86       4.10      18.78
C       9.32       8.62      17.62
C       8.76       8.46      21.13
C       8.88       8.73      22.49
C      10.38      10.58      21.98
C      10.26      10.30      20.62
C       9.45       9.24      20.18
C       9.69       9.79      22.93
C       9.79      10.10      24.31
C       9.36       8.92      18.80
C       9.85      10.40      25.48
C      12.05       4.15      17.67
C      13.93       4.34      20.70
C      14.21       4.35      22.06
C      11.89       3.77      22.53
C      11.62       3.76      21.18
C      12.63       4.05      20.24
C      13.19       4.06      23.00
C      13.49       4.03      24.38
C      12.33       4.09      18.86
C      13.77       3.97      25.56
C       7.15       4.16      11.15
C       7.59       4.53       7.52
C       7.30       4.35       6.17
C       5.36       3.03       6.79
C       5.66       3.22       8.13
C       6.79       3.97       8.55
C       6.18       3.59       5.78
C       5.90       3.41       4.41
C       7.04       4.11       9.93
C       5.66       3.27       3.22
C       9.25       8.61      11.17
C      10.48       8.75       7.87
C      10.54       8.93       6.50
C       8.27       9.83       6.52
C       8.22       9.65       7.90
C       9.32       9.11       8.59
C       9.44       9.47       5.81
C       9.48       9.68       4.41
C       9.26       8.87       9.98
C       9.49       9.90       3.21
C      12.09       3.94      11.26
C      13.32       2.66       8.10
C      13.53       2.64       6.73
C      12.39       4.78       6.51
C      12.19       4.81       7.88
C      12.64       3.75       8.69
C      13.07       3.69       5.91
C      13.26       3.64       4.51
C      12.37       3.80      10.08
C      13.44       3.54       3.31
C       9.83      10.96      26.81
C       5.81       3.47      26.90
C      14.25       3.69      26.89
C       9.42      10.42       1.88
C       5.20       3.02       1.88
C      13.79       3.20       1.96
N       8.77       5.34       7.84
O      10.51       7.81      15.83
O      11.92       5.50      15.80
O      10.77       3.54      15.84
O       8.25       3.57      15.69
O       7.09       5.53      15.69
O       8.23       7.78      15.75
O      10.47       7.79      12.94
O      11.85       5.49      12.93
O      10.90       3.44      13.20
O       8.37       3.58      13.03
O       7.17       5.50      13.04
O       8.20       7.82      13.09
O       9.63       5.71      14.41
O      13.85       2.62      27.44
O       8.70      11.27      27.29
O      10.98      11.15      27.37
O       6.15       2.35      27.42
O       5.07       4.35      27.46
O      15.10       4.53      27.37
O      13.47       2.05       1.57
O       8.28      10.68       1.41
O      10.55      10.63       1.28
O       5.54       1.92       1.33
O       4.42       3.90       1.37
O      14.45       4.08       1.28
O       3.62       2.28      28.75
O       9.11       5.43       9.03
O       9.36       5.89       6.89
O      12.75       7.61      14.30
O      12.39       0.06       0.05
