186

Zn      12.73      14.90       8.77
Zn      11.49      17.80       9.33
Zn      13.39      16.41      11.52
Zn      14.63      17.49       8.77
Zn      -3.27      13.13       0.83
Zn       5.53      22.16      17.27
Zn      -2.03      10.22       0.27
Zn      18.69      10.53       0.83
H       6.31      27.57      18.51
H       5.42      25.53      14.80
H      13.49      13.04      14.00
H      12.63      11.00      10.29
H      18.15       6.95       2.92
H      22.38       6.54       2.17
H      10.95      21.49       7.45
H      15.18      21.06       6.67
H      -0.03      14.72       2.93
H       1.65      10.82       2.15
H       7.81      17.21       7.43
H       9.48      13.30       6.68
H      26.16      21.24      14.80
H      24.47      19.81      18.51
H      18.31      18.78      10.29
H      16.64      17.32      13.99
C      10.04      15.69       7.86
C      11.08      18.10      12.24
C      13.06      13.48      11.34
C      16.09      17.61      11.34
C      15.04      15.20       6.96
C      13.06      19.82       7.86
C       5.86      25.09      17.46
C       7.84      20.47      16.56
C      -0.58      12.33       1.74
C      20.26       8.20       1.74
C      18.28      12.82       2.64
C      26.70      20.97      17.46
C      15.87      14.59       5.86
C      17.46      13.43       3.74
C      16.98      15.25       5.31
C      16.34      12.77       4.29
C      17.75      14.69       4.29
C      15.57      13.33       5.31
C      10.26      18.70      13.34
C       8.67      19.87      15.46
C      10.55      18.49      14.70
C       8.37      20.08      14.10
C       9.78      19.05      15.72
C       9.14      19.52      13.07
C       5.86      26.40      16.74
C       6.10      27.59      17.44
C       6.07      28.80      16.77
C       5.86      28.90      15.37
C       5.66      27.66      14.70
C       5.62      26.45      15.36
C       5.86      30.13      14.69
C      13.06       8.44      14.10
C      13.06       9.68      13.43
C      13.34      10.90      14.08
C      13.31      12.12      13.44
C      13.06      12.17      12.06
C      12.82      10.98      11.36
C      12.78       9.78      12.04
C      20.26       6.89       2.46
C      19.08       6.40       3.02
C      19.10       5.20       3.71
C      20.26       4.40       3.83
C      21.43       4.93       3.22
C      21.45       6.16       2.58
C      20.26       3.17       4.51
C      13.06      24.85       5.09
C      13.06      23.62       5.77
C      11.88      23.05       6.31
C      11.88      21.86       7.01
C      13.06      21.13       7.14
C      14.25      21.63       6.59
C      14.24      22.86       5.96
C       0.67      12.73       2.46
C       0.79      14.01       3.01
C       1.96      14.37       3.64
C       3.05      13.48       3.83
C       2.86      12.18       3.29
C       1.73      11.82       2.59
C       4.22      13.85       4.51
C       5.24      14.17       5.09
C       6.41      14.54       5.77
C       6.57      15.81       6.38
C       7.73      16.20       7.02
C       8.79      15.30       7.14
C       8.67      14.02       6.58
C       7.53      13.68       5.89
C      25.45      20.57      16.74
C      25.34      20.79      15.36
C      24.16      20.45      14.71
C      23.08      19.82      15.37
C      23.26      19.58      16.75
C      24.40      19.98      17.44
C      21.90      19.45      14.69
C      20.89      19.12      14.11
C      19.71      18.75      13.43
C      19.56      18.92      12.03
C      18.39      18.59      11.36
C      17.33      18.00      12.06
C      17.45      17.78      13.44
C      18.60      18.19      14.10
N       5.49      27.64      13.23
N       6.24      30.02      17.57
N      12.42       8.57      11.27
N      13.70      10.91      15.52
N      22.69       4.16       3.24
N      17.84       4.77       4.36
N      15.54      23.38       5.48
N      10.59      23.74       6.13
N       3.91      11.15       3.47
N       2.07      15.77       4.12
N       7.50      12.35       5.24
N       5.45      16.78       6.36
N      22.22      18.88      17.53
N      24.06      20.80      13.28
N      18.63      18.02      15.57
N      20.67      19.45      11.22
O      13.06      16.65       9.60
O      10.96      14.81       7.94
O      10.73      18.36      11.05
O      13.32      14.51      12.04
O      10.08      16.88       8.33
O      12.81      13.44      10.09
O      12.07      17.38      12.59
O      15.17      17.07      12.04
O      15.40      16.34       7.38
O      16.05      17.84      10.09
O      14.06      14.51       7.38
O      11.94      19.42       8.31
O      14.18      19.22       7.95
O       5.86      21.92      19.20
O       6.10      25.13      18.71
O       6.85      21.19      16.20
O      -0.62      11.14       1.29
O       5.62      24.06      16.75
O      -1.49      13.22       1.65
O       8.20      20.21      17.75
O      21.38       8.60       1.27
O      17.92      11.68       2.22
O      19.14       8.81       1.66
O      19.27      13.51       2.22
O      27.61      21.52      16.76
O      26.75      20.71      18.71
O       6.28      28.31      12.56
O       4.58      26.93      12.80
O       5.44      30.95      17.37
O       7.15      30.01      18.41
O      11.59       7.82      11.77
O      12.97       8.44      10.17
O      14.54      10.07      15.89
O      13.15      11.76      16.22
O      22.61       2.96       2.94
O      23.71       4.79       3.52
O      17.91       4.38       5.52
O      16.81       4.87       3.67
O      15.80      24.56       5.74
O      16.26      22.58       4.88
O      10.32      24.15       5.00
O       9.86      23.82       7.13
O       4.38      11.03       4.60
O       4.20      10.49       2.47
O       3.11      16.37       3.86
O       1.08      16.22       4.72
O       7.10      12.30       4.08
O       7.90      11.40       5.93
O       4.33      16.35       6.66
O       5.74      17.95       6.08
O      21.75      17.85      17.02
O      21.93      19.36      18.63
O      23.01      21.34      12.91
O      25.04      20.53      12.58
O      19.02      18.98      16.23
O      18.22      16.93      16.00
O      21.79      18.97      11.43
O      20.38      20.31      10.39
F      17.37      16.46       5.74
F      15.95      11.56       3.86
F      18.79      15.43       3.86
F      14.53      12.59       5.74
F      11.59      17.73      15.09
F       7.34      20.84      13.71
F      10.17      18.76      16.98
F       8.75      19.81      11.82
