72

Zn       7.90       8.88       7.55
Zn       7.39       5.96       7.78
H      14.39       8.99       7.81
H       0.92       5.97       7.32
H       6.99       9.85      14.31
H       6.60       5.06       1.03
H       7.06       9.79      11.82
H       6.74       5.08       3.52
H       8.22       5.67      11.93
H       8.12       9.14       3.42
H       8.22       5.73      14.42
H       8.04       9.12       0.93
H       5.14       1.21       8.63
H       9.21      13.66       5.65
H       8.90       3.86       6.98
H       7.24      10.92       9.19
H       8.95       1.42       6.61
H       7.02      13.38       9.36
H       4.29       3.08       9.40
H       4.88       4.55      11.10
H       4.48       5.69       9.77
H       6.16       5.26      10.10
H       9.92      11.79       4.75
H      11.52      10.23       5.39
H      10.19       9.16       4.82
H      10.39       9.49       6.55
C       7.67       7.67      10.23
C       7.55       7.12       5.11
C       7.93       6.61      13.85
C       7.74       8.23       1.50
C       7.60       7.79      14.55
C       7.33       7.08       0.80
C       5.99       1.76       8.23
C       8.75      13.09       6.45
C       6.05       3.16       8.47
C       8.89      11.68       6.45
C       8.08       3.24       7.32
C       7.66      11.57       8.42
C       8.09       1.87       7.10
C       7.52      12.94       8.50
C       7.01       1.10       7.58
C       8.08      13.74       7.48
C       5.12       8.03       7.60
C      10.20       6.92       7.70
C      11.64       6.80       7.62
C       3.68       8.15       7.59
C      14.25       6.90       7.49
C       1.05       8.06       7.64
C       2.46       8.13       7.61
C      12.85       6.83       7.55
C       7.28       8.94      13.79
C       6.96       5.95       1.55
C       7.31       8.91      12.40
C       7.02       5.96       2.94
C       7.64       7.73      11.72
C       7.45       7.10       3.62
C       7.95       6.58      12.47
C       7.80       8.25       2.88
C       5.14       4.87      10.08
C      10.47       9.93       5.55
N       7.09       3.89       7.99
N       8.32      10.93       7.42
N       5.05       3.73       9.19
N       9.62      11.11       5.44
O       7.53       8.76       9.59
O       7.21       6.06       5.74
O       7.81       6.52       9.70
O       7.99       8.19       5.65
O       5.82       9.05       7.34
O       9.49       5.89       7.48
O       5.54       6.86       7.90
O       9.78       8.10       7.98
