228

Zn      23.17      18.74      16.99
Zn      12.96       1.98      14.28
Zn      19.96      18.67      16.83
Zn      12.84       3.84      16.88
Zn      19.91       8.26      23.63
Zn      23.13       8.39      23.84
Zn      21.41       7.24      26.29
Zn      21.66       5.57      23.58
Zn      12.88      14.17      10.11
Zn      13.03      12.38       7.45
Zn      11.37      15.13       7.48
Zn      14.60      15.15       7.59
Zn      22.34       7.81       0.54
Zn      23.89      10.63       0.75
Zn       5.93       7.87       0.70
Zn      10.67      12.83      30.53
H      16.96       7.00      21.16
H      26.05      19.99      19.53
H      15.35      15.53      12.97
H      19.16      18.29      11.46
H      23.64      12.06      21.36
H      12.83      10.71      12.99
H       9.78      15.61      13.01
H       5.22       3.49      21.32
H      25.60      10.02      30.90
H      25.94      10.24      25.99
H      13.78      11.45      27.65
H      30.06      18.62      31.13
H       6.74      12.69       3.15
H      10.68      10.34       4.94
H      20.74      12.75       3.14
H      21.80       4.10       3.03
C      24.22      18.25      14.31
C      19.16      18.11      14.07
C      21.55      16.69      18.28
C      10.28       3.37      18.22
C      15.28       3.51      18.45
C      12.89       4.90      14.20
C      21.54      10.34      22.31
C      23.79       8.93      26.67
C      18.83       8.61      26.31
C      21.55       4.34      26.22
C      19.16       5.91      22.07
C      24.32       6.06      22.46
C      12.92      11.23      10.16
C      10.58      12.77       5.90
C      10.29      15.58      10.18
C      13.01      17.20       6.22
C      15.42      15.63      10.35
C      15.57      12.88       6.08
C      21.27      10.15       2.01
C       6.81      10.24       2.23
C       4.29       5.79       2.02
C      13.25      11.43      30.47
C      27.78      11.29      30.21
C      30.14      15.79      30.52
C      16.21       4.16      19.43
C      18.16       5.23      21.19
C      16.08       5.48      19.92
C      18.26       3.89      20.74
C      17.05       5.98      20.78
C      17.30       3.39      19.88
C      18.15      17.47      13.17
C      16.39      16.31      11.26
C      17.05      16.69      13.59
C      17.48      17.11      10.84
C      16.20      16.13      12.64
C      18.33      17.67      11.79
C      20.41      14.62      19.41
C      22.62      12.32      21.11
C      21.49      15.40      19.00
C      21.53      11.57      21.50
C      22.20      13.44      20.35
C      20.80      13.51      20.20
C      12.89       6.26      11.96
C      12.87       9.86      12.32
C      12.83       6.10      13.35
C      12.92       9.98      10.95
C      12.87       8.49      12.69
C      12.93       7.62      11.58
C      25.52      17.84      12.09
C      28.65      16.07      12.36
C      25.35      17.81      13.47
C      28.79      16.11      10.98
C      27.45      16.69      12.76
C      26.70      17.18      11.67
C       9.03       5.26      19.53
C       5.95       4.27      21.14
C       9.18       3.98      18.99
C       5.82       5.55      21.65
C       7.14       4.17      20.38
C       7.88       5.37      20.34
C      24.76       9.54      27.63
C      26.77      10.72      29.26
C      24.67       9.48      29.04
C      26.86      10.78      27.85
C      25.67      10.07      29.81
C      25.87      10.19      27.07
C      17.65       9.20      28.57
C      14.51      10.96      28.29
C      17.81       9.23      27.18
C      14.36      10.89      29.67
C      15.70      10.32      27.90
C      16.43       9.79      28.98
C      30.32      19.38      26.63
C      30.11      18.32      30.08
C      30.27      20.72      27.02
C      30.15      17.00      29.67
C      30.14      19.18      28.96
C      30.21      18.50      27.73
C       9.59      12.17       4.94
C       7.82      10.84       3.16
C       8.46      12.85       4.42
C       8.95      10.17       3.67
C       7.61      12.17       3.55
C       9.81      10.85       4.54
C      16.78      11.05       4.65
C      19.99      11.97       3.28
C      16.61      12.33       5.18
C      20.14      10.68       2.79
C      18.77      12.09       3.98
C      18.02      10.89       3.99
C       5.46       1.52       4.89
C       3.22       3.84       3.27
C       4.39       0.76       5.34
C       4.31       4.58       2.84
C       3.65       2.73       4.04
C       5.05       2.66       4.17
S      22.99      14.75      19.56
S      19.99      12.22      20.98
S      12.79       7.62      14.17
S      12.99       8.47      10.09
S      26.67      17.01      14.26
S      27.46      16.88      10.16
S       7.89       2.92      19.46
S       7.13       6.62      21.23
S      16.50      10.03      26.40
S      15.65      10.05      30.48
S      30.15      20.89      28.73
S      30.21      16.80      27.94
S      17.96      13.35       4.82
S      18.82       9.62       3.17
S       2.87       1.43       4.85
S       5.84       3.96       3.38
N      19.01      14.79      19.04
N      12.81       5.22      10.95
N      24.67      18.52      11.11
N       9.85       6.43      19.26
N      18.60       8.72      29.56
N      30.54      18.86      25.29
N      15.81       9.96       4.65
N       6.88       1.19       5.01
Cl      14.75       6.51      19.56
Cl      19.51       2.80      21.24
Cl      16.67      16.37      15.24
Cl      17.80      17.49       9.19
Cl      23.38       8.72      29.90
Cl      28.13      11.57      26.98
Cl       8.06      14.49       4.75
Cl       9.37       8.54       3.32
O      21.58      19.61      16.25
O      24.50      18.40      15.56
O      19.96      18.94      13.53
O      20.50      17.40      18.24
O      23.09      18.40      13.76
O      22.70      16.99      17.80
O      19.15      17.77      15.30
O       9.98       2.28      17.62
O      14.53       4.27      17.77
O      11.42       3.95      18.24
O      24.01      19.86      18.37
O      13.33       3.82      13.69
O      12.51       5.08      15.41
O      21.53       7.38      24.33
O      20.41       9.77      22.48
O      24.12       8.97      25.43
O      19.56       7.69      26.80
O      22.67       9.97      22.76
O      18.85       9.05      25.11
O      22.71       8.43      27.13
O      21.79       5.41      26.90
O      20.31       5.39      22.17
O      21.25       4.26      24.99
O      18.77       6.99      22.65
O      24.38       7.30      22.78
O      23.40       5.23      22.76
O      12.96      14.22       8.16
O      12.98      12.33      10.81
O      11.65      12.10       6.08
O      10.23      15.81       8.93
O      12.85      11.08       8.89
O      11.20      14.94      10.81
O      10.26      13.86       6.47
O      11.88      16.59       6.25
O      15.75      15.45       9.14
O      14.04      16.91       6.90
O      14.32      15.26      10.89
O      14.82      12.06       6.69
O      15.58      14.16       6.20
O       4.34       8.80       0.02
O      21.18       8.92       1.67
O       5.78      10.97       1.96
O       5.43       6.33       1.81
O      22.23      10.95       1.75
O      22.77       6.19       1.58
O       7.04       9.08       1.77
O      13.28      11.18      31.72
O      28.85      11.77      29.73
O      12.36      12.09      29.84
O      27.47      11.25      31.45
O      30.15      15.96      31.78
O      30.14      14.68      29.88
O      18.19      14.33      19.86
O      18.72      15.31      17.96
O      13.35       5.50       9.86
O      12.19       4.18      11.20
O      24.65      18.01       9.98
O      15.41       1.92      11.45
O       9.87       7.29      20.16
O      10.43       6.52      18.17
O      18.10       8.33      30.63
O      19.81       8.78      29.31
O      30.05      17.74      25.07
O      31.23      19.52      24.50
O      16.30       8.81       4.59
O      14.60      10.22       4.65
O       7.64       2.17       5.07
O      15.90      17.64       4.98
