124

Zn       8.36      16.60       8.52
Zn       5.46       0.01       8.51
H      10.31       2.05       8.50
H      10.43      14.56       8.53
H       3.51      14.56       8.52
H       3.39       2.05       8.49
H       4.75       4.72       3.61
H       9.12      11.87       3.66
H       4.77      11.92      13.38
H       9.01       4.69      13.40
H       9.07      11.89      13.41
H       4.71       4.74      13.36
H       9.05       4.69       3.64
H       4.82      11.92       3.62
H       4.73       2.99       5.43
H       9.11      13.60       5.48
H       4.81      13.66      11.57
H       9.00       2.97      11.58
H       9.09      13.62      11.60
H       4.71       3.01      11.55
H       9.02       2.95       5.46
H       4.83      13.64       5.44
H       6.91       6.94       5.11
H       6.94       9.65       5.11
H       6.91       9.67      11.91
H       6.89       6.96      11.91
H       6.91       3.18       1.34
H       7.00      13.42       1.36
H       6.92      13.43      15.68
H       6.82       3.19      15.66
H       6.85       7.21      17.02
H       6.98       9.39       0.00
H       1.09       4.40       7.60
H       2.46       3.71       8.49
H       1.09       4.41       9.36
H      12.61       4.41       9.36
H      11.25       3.70       8.48
H      12.61       4.40       7.60
H       1.22      12.21       9.43
H       2.58      12.91       8.54
H       1.21      12.20       7.66
H      12.73      12.20       7.66
H      11.37      12.90       8.54
H      12.74      12.21       9.42
C       6.86       1.86      10.36
C       6.86       1.85       6.64
C       6.97      14.75       6.66
C       6.97      14.76      10.38
C      10.95       1.16       8.50
C      12.35       1.24       8.50
C      13.07       2.49       8.49
C      11.06      15.44       8.52
C      12.47      15.37       8.52
C      13.19      14.12       8.53
C       2.88      15.45       8.52
C       1.48      15.37       8.52
C       0.76      14.12       8.53
C       2.76       1.17       8.50
C       1.36       1.24       8.50
C       0.64       2.49       8.49
C      13.17      16.61       8.51
C       0.65       0.00       8.51
C       5.69       4.33       4.02
C       8.18      12.26       4.05
C       5.72      12.30      12.99
C       8.07       4.32      12.99
C       8.14      12.28      13.00
C       5.65       4.34      12.97
C       8.11       4.31       4.04
C       5.76      12.29       4.03
C       5.67       3.37       5.03
C       8.18      13.22       5.06
C       5.73      13.26      11.98
C       8.07       3.36      11.98
C       8.15      13.24      11.99
C       5.65       3.39      11.96
C       8.09       3.35       5.05
C       5.76      13.25       5.04
C       6.93       7.21       2.86
C       6.95       9.39       2.86
C       6.89       9.40      14.17
C       6.87       7.22      14.16
C       6.92       7.62       4.26
C       6.94       8.98       4.26
C       6.90       8.99      12.77
C       6.89       7.63      12.76
C       6.93       5.41       1.13
C       6.98      11.20       1.13
C       6.89      11.20      15.90
C       6.84       5.41      15.89
C       6.92       4.04       0.68
C       7.00      12.57       0.69
C       6.90      12.57      16.34
C       6.83       4.04      16.33
C       6.92       5.86       2.45
C       6.97      10.74       2.46
C       6.90      10.75      14.57
C       6.86       5.87      14.56
C       6.90       4.82       3.52
C       6.97      11.78       3.53
C       6.92      11.79      13.51
C       6.86       4.83      13.50
C       6.87       2.88       5.55
C       6.97      13.72       5.57
C       6.95      13.73      11.47
C       6.86       2.89      11.45
C       1.37       3.81       8.48
C      12.33       3.81       8.48
C       1.49      12.80       8.54
C      12.46      12.80       8.54
N      10.41      16.61       8.51
N       3.42       0.00       8.51
N       6.95       8.30       2.02
N       6.88       8.31      15.00
N       6.84       6.19      17.02
N       6.98      10.42       0.00
O       7.99       1.46       9.95
O       5.72       1.47       9.94
O       5.72       1.46       7.06
O       7.99       1.44       7.07
O       5.83      15.15       7.07
O       8.10      15.14       7.09
O       8.11      15.15       9.97
O       5.84      15.17       9.95
