296

Zn       6.64      10.89       1.48
Zn       0.48      -1.00      10.94
Zn       9.15      10.41       0.34
Zn       2.98      -2.00      10.22
Zn       3.64      10.67       6.54
Zn       9.81       3.98      11.86
Zn       4.35      12.73       9.46
Zn      10.52       6.37      14.53
H       2.46      10.25      10.45
H       8.63       7.88      12.34
H       3.03       6.79      11.36
H       9.20       9.55       9.16
H       1.70       7.67      10.60
H       7.86       8.61       9.85
H       2.43       8.27      12.12
H       8.60       9.96      10.78
H       4.90       6.90      10.34
H      -1.26       8.53       9.04
H       5.72       8.49      10.28
H      -0.44       8.12      10.58
H       4.89       7.87       8.84
H      -1.27       6.85       9.65
H       5.01       9.82       3.90
H      11.18       1.60      10.45
H       5.67      11.43       4.29
H      -0.49       1.62      12.10
H       5.37      13.28       2.76
H      -0.80      -0.29      13.56
H       4.50      13.03       1.22
H      10.66      -1.73      12.97
H       3.61      10.86       0.68
H       9.78      -1.77      10.73
H       3.85       9.49       1.80
H      10.01      -0.37       9.65
H       2.40      12.96       4.85
H       8.57       1.82      13.72
H       4.17      13.25       4.83
H      10.33       1.74      13.99
H       1.23      12.62       2.77
H       7.40      -0.13      12.92
H       2.13      12.63       1.22
H       8.30      -1.64      12.58
H       2.65       9.45       3.90
H       8.81       1.68      10.08
H       1.52      10.79       4.30
H       7.68       1.77      11.47
H       8.64       5.42      16.90
H       2.48      15.26       9.07
H       9.17       7.08      17.27
H       3.01      15.24      10.77
H      11.47       8.43       0.57
H       5.30      -1.33       8.34
H       9.13       3.62      18.45
H       2.96      17.17       7.67
H      -1.98       7.55      19.33
H       4.18      17.15      11.69
H      -0.14      10.68       1.07
H       6.03      -1.35      10.64
H      10.29       3.73      16.35
H       4.12      15.09       7.30
H      -0.31       4.16      16.30
H       5.86      14.95       7.71
H       1.46       9.02       0.51
H       7.63      -1.52       8.91
H       0.85       4.64      18.33
H       7.02      16.83       8.63
H       0.39       6.41      16.80
H       6.56      14.93      10.01
H      -0.83       7.65      17.21
H       5.34      15.05      11.32
H       6.50       3.05      16.61
H       0.34      15.51       6.70
H       1.54       2.53      16.76
H       7.71      15.77       6.22
H       2.74       3.89      18.48
H       8.91      17.14       7.93
H       6.60       1.54      14.65
H       0.43      13.94       4.79
H       5.40       0.18      12.92
H      -0.76      12.55       3.07
H       1.62       1.13      14.68
H       7.79      14.06       4.40
H      10.67       7.33       2.97
H       4.51       1.25       7.81
H      11.27       5.82       4.87
H       5.11       3.44       6.76
H       6.87       8.17       4.79
H       0.70       2.84       9.04
H      10.67       4.78       7.06
H       4.50       5.80       6.24
H       6.97       5.83       8.97
H       0.81       7.43       7.70
H       6.32       7.23       6.98
H       0.15       5.19       8.61
H       0.11      11.02       6.52
H       6.27       3.88      12.21
H       9.98      13.72       9.93
H       3.82       6.61      15.59
H       0.14      13.72       9.87
H       6.30       6.54      15.58
H      10.27      10.17       5.63
H       4.11       3.21      11.17
H       7.79      10.19       5.68
H       1.62       3.25      11.20
H       7.81      12.96       8.97
H       1.65       5.84      14.64
H       7.53       8.65      16.50
H       1.36      14.14      12.13
H       3.02      10.73      16.01
H       9.18      13.20      14.05
H       3.54       9.30      17.99
H       9.71      15.45      13.09
H       8.22       9.61      14.35
H       2.05      11.84      12.58
H       7.69      11.06      12.36
H       1.53       9.57      13.55
H       3.73      11.75      13.85
H       9.90      10.86      14.55
C       3.40       9.83      10.06
C       9.57       7.61      11.83
C       2.64       7.79      11.16
C       8.80       9.13      10.09
C       4.86       7.91       9.93
C      -1.31       7.91       9.94
C       4.84      10.90       3.81
C      11.01       1.27      11.48
C       4.53      12.76       2.28
C      10.69      -0.63      12.95
C       3.65      10.56       1.73
C       9.82      -0.68      10.68
C       3.34      12.72       4.34
C       9.50       1.38      13.37
C       2.18      12.35       2.29
C       8.35      -0.54      12.55
C       2.46      10.52       3.79
C       8.63       1.34      11.11
C       9.44       6.02      17.36
C       3.27      15.57       9.76
C       9.93       4.22      18.90
C       3.76      17.48       8.35
C      -0.23      10.95       0.02
C       5.93      -2.44      10.67
C      -1.26       4.34      16.82
C       4.91      15.42       7.99
C      -0.10       4.82      18.84
C       6.07      17.29       8.92
C      -0.56       6.60      17.32
C       5.61      15.40      10.31
C       5.36       4.46      18.62
C      -0.80      17.15       8.52
C       4.69       3.56      17.63
C      -1.48      16.38       7.42
C       5.42       2.92      16.64
C      -0.75      15.57       6.58
C       4.78       2.12      15.67
C      -1.39      14.80       5.58
C       3.35       1.99      15.69
C       9.52      14.85       5.46
C       2.62       2.64      16.73
C       8.79      15.71       6.32
C       3.28       3.40      17.67
C       9.45      16.46       7.27
C       5.51       1.45      14.66
C      -0.66      13.96       4.69
C       4.86       0.70      13.71
C      -1.30      13.20       3.75
C       3.45       0.58      13.71
C       9.61      13.23       3.64
C       2.71       1.22      14.69
C       8.88      14.04       4.48
C       2.78      -0.21      12.63
C       8.95      12.35       2.62
C       8.42       8.80       2.67
C       2.25       0.63       9.17
C       8.74       7.85       3.78
C       2.57       1.92       8.49
C       9.98       7.17       3.80
C       3.82       2.09       7.84
C      10.31       6.34       4.84
C       4.15       3.30       7.26
C       9.41       6.15       5.93
C       3.24       4.40       7.32
C       8.15       6.83       5.91
C       1.98       4.23       7.99
C       7.83       7.66       4.81
C       1.67       2.97       8.55
C       9.73       5.33       7.03
C       3.56       5.66       6.77
C       8.87       5.23       8.11
C       2.70       6.73       6.92
C       7.63       5.93       8.10
C       1.46       6.57       7.59
C       7.27       6.69       7.02
C       1.10       5.34       8.10
C       9.31       4.45       9.31
C       3.14       8.07       6.42
C       1.74      12.42       8.12
C       7.91       5.13      13.92
C       0.25      12.39       8.17
C       6.42       5.18      13.90
C      -0.44      11.61       7.26
C       5.72       4.47      12.94
C      10.48      11.57       7.28
C       4.31       4.50      12.90
C       9.78      12.36       8.25
C       3.61       5.27      13.90
C      -1.81      13.13       9.19
C       4.35       6.01      14.85
C      -0.44      13.13       9.16
C       5.73       5.98      14.85
C       9.73      10.77       6.36
C       3.57       3.79      11.93
C       8.36      10.78       6.38
C       2.19       3.80      11.94
C       7.67      11.60       7.31
C       1.50       4.53      12.95
C       8.36      12.37       8.23
C       2.20       5.25      13.90
C       6.18      11.63       7.31
C       0.01       4.52      12.98
C       5.88       8.01      18.52
C      -0.28      16.25      11.95
C       5.58       8.90      17.36
C      -0.59      14.92      12.56
C       6.54       9.11      16.39
C       0.38      13.93      12.55
C       6.27       9.90      15.25
C       0.11      12.65      13.07
C       4.98      10.51      15.12
C      -1.19      12.38      13.63
C       4.00      10.28      16.13
C      -2.16      13.41      13.63
C       4.29       9.49      17.22
C      -1.87      14.65      13.11
C       7.25      10.10      14.24
C       1.08      11.61      13.04
C       6.96      10.88      13.14
C       0.80      10.37      13.55
C       5.68      11.47      13.00
C      -0.49      10.10      14.09
C       4.71      11.29      13.97
C      -1.45      11.09      14.14
C       5.34      12.18      11.73
C      -0.82       8.70      14.50
N       3.62       8.55      10.39
N       9.79       8.21      10.66
N       4.80      11.28       2.38
N      10.96      -0.21      11.53
N       3.57      11.25       4.49
N       9.74       1.86      11.97
N       3.27      13.11       2.93
N       9.44      -0.08      13.43
N       2.39      10.90       2.38
N       8.55      -0.12      11.15
N       9.54       5.67      18.80
N       3.37      17.05       9.74
N      -1.62       5.78      16.65
N       4.55      14.93       9.36
N      -1.13       3.97      18.23
N       5.03      16.88       7.96
N      -0.42       6.26      18.73
N       5.74      16.86      10.29
O       4.21      10.50       9.38
O      10.38       6.79      12.34
O       6.10       9.39       0.16
O      -0.07      -1.94       9.18
O       6.60       4.71      18.45
O       0.43      16.93       8.73
O       3.55      -0.80      11.80
O       9.72      11.68       1.86
O       1.51      -0.24      12.60
O       7.67      12.33       2.59
O       7.35       9.49       2.79
O       1.19       0.59       9.87
O       9.25       8.88       1.71
O       3.08      -0.33       9.03
O      10.21       3.59       9.22
O       4.05       8.18       5.56
O       8.73       4.78      10.43
O       2.56       9.10       6.99
O       4.93       7.74      19.32
O      -1.24      17.09      11.88
O       2.35      12.82       9.16
O       8.51       6.05      14.55
O       2.31      12.07       7.03
O       8.47       4.14      13.33
O       5.59      10.66       6.73
O      -0.58       4.17      11.90
O       5.58      12.62       7.84
O      -0.58       4.81      14.06
O       7.07       7.55      18.61
O       0.90      16.44      11.53
O       6.22      12.30      10.82
O       0.05       7.79      14.41
O       4.13      12.59      11.55
O      10.30       8.44      14.86
