171

Zn      -1.71      -3.91       6.77
Zn      -1.71       7.82       0.00
Zn       1.71       3.91       6.77
H      -1.82      -0.92       5.59
H       5.02      -2.51      11.55
H       1.60       3.43       9.95
H       5.24       8.74       7.95
H      -1.60      10.33       2.00
H       1.82       4.38       3.60
H      -0.21       0.66       4.43
H       6.63      -4.30      10.76
H       3.21       3.65      11.89
H       3.63       7.16       9.11
H      -3.21      12.12       2.79
H       0.22       4.17       1.65
H       2.08      -0.18       3.87
H      -1.33      -4.38      11.77
H      -4.75       4.56      11.45
H       1.34       8.00       9.68
H       4.76      12.19       1.77
H       8.18       3.26       2.09
H      -1.97       7.43       8.09
H       1.44      11.11       3.06
H       4.87       4.91       2.40
H       5.39       0.38       5.45
H       1.98      -3.29      10.49
H      -1.44       2.91      11.15
H      -0.51       5.42       8.34
H       2.91      12.32       4.68
H       6.32       5.71       0.53
H       3.93       2.40       5.21
H       0.52      -4.51       8.86
H      -2.90       2.11      13.02
H       2.05       6.74       5.36
H       5.46       9.08       5.02
H      -1.37       7.62       3.16
H       1.38       1.07       8.18
H      -2.04      -1.27       8.52
H       4.79       0.20      10.38
H       0.70       8.83       5.01
H       4.11       7.74       3.38
H      -2.71       6.88       5.14
H       2.73      -1.01       8.53
H      -0.69       0.07      10.16
H       6.14       0.94       8.40
H       3.69      -1.86       3.83
H       0.28      -3.57      13.24
H      -3.15       5.43      10.01
H      -0.27       9.67       9.71
H       3.15      11.39       0.30
H       6.57       2.38       3.53
H      -0.38      12.11       3.66
H       3.04       4.93       1.23
H      -3.79       6.41       8.66
H       3.80      -4.29       9.88
H       0.39       2.89      12.32
H       7.22       1.41       4.88
H       3.64      -3.00       5.21
H       0.23      -1.80      13.53
H      -3.19       4.80       8.34
H      -0.22      10.81       8.33
H       3.20       9.62       0.01
H       6.62       3.02       5.20
C      -0.80      -1.22       5.31
C       6.03      -2.61      11.95
C       2.61       3.83       9.83
C       4.23       9.04       8.24
C      -2.61      10.42       1.59
C       0.81       3.98       3.72
C       0.09      -0.36       4.67
C      -3.33      -3.59      11.52
C       3.50       3.95      10.89
C       3.34       8.18       8.87
C       6.75      11.41       2.02
C      -0.08       3.86       2.65
C       1.36      -0.84       4.35
C      -2.06      -3.63      12.09
C       4.77       4.46      10.64
C       2.07       8.65       9.19
C       5.48      11.44       1.45
C      -1.35       3.35       2.90
C       1.74      -2.14       4.67
C      -1.67      -2.70      13.07
C       5.16       4.84       9.35
C       1.68       9.96       8.87
C       5.10      10.52       0.48
C      -1.73       2.97       4.19
C       0.78      -2.95       5.33
C      -2.64      -1.73      13.43
C       4.19       4.68       8.32
C       2.65      10.76       8.22
C       6.06       9.55       0.11
C      -0.77       3.14       5.22
C      -2.40      11.31       5.78
C       1.01       7.16       0.85
C       4.43       4.98       6.91
C       5.82      -3.50       7.77
C       2.41       0.66      12.69
C      -1.01       2.84       6.63
C      -1.63       9.43       6.32
C       1.78       8.58       2.21
C       5.20       5.44       5.01
C       5.06      -1.62       7.22
C       1.64      -0.76      11.34
C      -1.78       2.38       8.53
C      -0.76       8.29       6.52
C       2.65       9.32       3.10
C       6.07       5.85       3.92
C       4.19      -0.47       7.03
C       0.77      -1.50      10.44
C      -2.65       1.97       9.62
C      -1.08       7.31       7.48
C       2.33      10.63       3.47
C       5.75       5.50       2.60
C       4.51       0.50       6.06
C       1.09      -2.82      10.08
C      -2.33       2.32      10.94
C      -0.27       6.20       7.61
C       3.14      11.31       4.37
C       6.56       5.94       1.57
C       3.69       1.62       5.93
C       0.28      -3.49       9.18
C      -3.14       1.87      11.98
C       1.15       6.94       5.95
C       4.57       9.50       4.55
C      -2.26       7.01       3.03
C       2.27       0.88       7.59
C      -1.14      -1.69       8.99
C       5.69       0.81      10.51
C       0.40       8.09       5.76
C       3.82       8.76       3.65
C       7.24       6.60       4.13
C       3.02      -0.28       7.78
C      -0.39      -0.94       9.89
C      -3.82       1.22       9.41
C      -0.31      12.98       4.32
C       3.10       5.06       0.14
C      -3.73       5.40       9.09
C       3.73      -5.17       9.22
C       0.32       2.75      13.41
C       7.15       2.42       4.46
N      -0.46      -2.48       5.62
N      -3.88      -1.71      12.88
N       2.95       4.19       8.58
N       3.89      10.30       7.92
N       7.30       9.52       0.66
N       0.47       3.63       4.96
N      -3.37      10.67       6.49
N       0.05       8.10       1.05
N       3.47       4.68       6.00
N       6.79      -2.86       7.06
N       3.38      -0.28      12.49
N      -0.04       3.14       7.54
N      -2.89       9.47       6.85
N       0.53       9.01       1.91
N       3.95       4.96       4.78
N       6.31      -1.66       6.69
N       2.89      -1.20      11.63
N      -0.53       2.85       8.76
N      -1.29      10.56       5.64
N       2.12       7.42       1.58
N       5.54       5.47       6.33
N       4.72      -2.74       7.90
N       1.30       0.40      11.97
N      -2.12       2.34       7.22
N       0.82       5.99       6.85
N       4.24      10.75       4.92
N       7.66       6.70       1.76
N       2.60       1.82       6.69
N      -0.81      -2.94       8.62
N      -4.23       1.11      11.78
