212

Al       5.08      21.09      19.81
Al       1.64       7.05       6.63
Al       1.75      21.16      19.86
Al       4.98       7.04       6.59
H       5.30      19.16      25.87
H       1.07       8.78       0.47
H       1.94      23.08      13.79
H       4.43       5.29      12.74
H       4.63      25.42      24.88
H       2.00       1.89       2.49
H       1.29      16.83      14.79
H       5.34      12.20      10.73
H       1.99      26.44      23.74
H       4.56       2.84       1.58
H       5.32      15.80      15.91
H       1.23      11.25      11.65
H       1.97      24.57      22.10
H       4.66       4.66       3.22
H       5.30      17.67      17.56
H       1.33       9.43      10.00
H       1.85      26.59      26.31
H       4.74       7.20      26.43
H       5.17      15.66      13.35
H       1.39      12.45      13.24
H       1.81      22.80       1.55
H       4.72       5.37      24.80
H       5.15      13.88      11.67
H       1.38      14.28      14.86
H       4.30      14.68       1.15
H       4.50      14.19       2.85
H       5.69      15.26       2.08
H       2.07      13.25      25.28
H       0.78      12.79      24.16
H       2.11      13.82      23.60
H       0.97      22.02      12.07
H       1.16      22.51      10.38
H       2.34      21.43      11.13
H       5.42       6.38      14.37
H       4.14       6.84      15.49
H       5.46       5.81      16.05
H       5.82      20.25      24.16
H       0.60      19.82      25.10
H       0.75      20.32      23.41
H       5.81       8.25       1.40
H       0.59       7.76       2.29
H       5.71       7.83       3.12
H       2.47      22.00      15.50
H       3.91      22.41      14.56
H       4.06      21.92      16.25
H       2.49       5.83      11.83
H       3.94       6.32      10.93
H       2.38       6.25      10.11
H       0.33      17.52      19.70
H       0.68      15.79      19.87
H       5.67      16.36      19.88
H       0.78      10.73       6.57
H       1.61      12.19       6.03
H       6.59      12.29       6.54
H       3.68      24.72      19.96
H       4.04      26.45      19.79
H       2.35      25.88      19.78
H       4.11       3.35       6.65
H       4.94       1.89       7.18
H       3.25       1.80       6.68
H       1.01      13.89       4.94
H       0.46      14.56       3.40
H       5.97      14.27       4.72
H       6.01      14.33      21.10
H       0.98      13.88      21.58
H       6.28      13.57      22.67
H       4.34      22.79       8.28
H       3.79      22.13       9.82
H       2.63      22.42       8.50
H       2.70       5.31      18.56
H       4.34       5.75      18.07
H       2.97       6.07      16.99
H       4.52      22.25      23.50
H       3.54      23.63      24.08
H       3.76      23.30      22.34
H       2.22       3.58       5.47
H       3.14       2.85       4.14
H       2.90       4.62       4.26
H       1.18      19.99      16.16
H       0.20      18.62      15.59
H       0.43      18.95      17.33
H       5.55      10.50       7.74
H       6.48      11.23       9.08
H       6.23       9.46       8.96
H       3.42      20.44      21.41
H       3.28       7.77       5.05
H       0.08      21.80      18.25
H       6.61       6.31       8.17
C       3.38      19.39      18.12
C       3.31       8.71       8.39
C       0.05      22.86      21.54
C       6.64       5.38       4.83
C       3.42      23.01      18.32
C       3.34       5.12       8.11
C       0.09      19.23      21.34
C       6.67       8.96       5.11
C       0.02      10.08       4.11
C       0.09      18.06      22.28
C       3.36       4.00       9.11
C       3.42      24.18      17.38
C       6.66      12.46       3.70
C       0.16      15.67      22.57
C       3.33      24.23       9.52
C       3.50       3.97      17.09
C       0.22      11.40       4.58
C       0.08      16.77      21.72
C       3.55       2.68       8.64
C       3.43      25.47      17.94
C       6.55       9.78       2.76
C       0.03      18.30      23.65
C       3.22       4.31      10.46
C       3.36      23.94      16.01
C       6.54      10.86       1.82
C       6.67      17.18      24.53
C       3.21       3.22      11.39
C       3.33      25.06      15.13
C       6.35      12.19       2.34
C       0.26      15.87      23.98
C       3.02      24.50      10.88
C       3.60       3.76      15.67
C       0.03      10.68       0.39
C       6.43      17.31      25.95
C       3.38       3.39      12.83
C       3.09      24.93      13.71
C       5.79      12.91       0.08
C       0.64      15.08      26.26
C       2.47      23.78      13.14
C       3.97       4.56      13.40
C       5.79      13.16       1.43
C       0.71      14.85      24.90
C       2.46      23.52      11.79
C       4.05       4.78      14.75
C       5.48      24.18      23.34
C       1.17       3.49       3.61
C       2.14      18.07      16.32
C       4.50      10.59       9.61
C       5.51      25.25      24.24
C       1.10       2.48       2.64
C       2.17      17.00      15.42
C       4.44      11.60      10.58
C       6.64      26.06      24.42
C       6.61       2.20       1.89
C       3.30      16.18      15.24
C       3.29      11.89      11.33
C       1.11      25.81      23.64
C       5.49       3.01       2.12
C       4.44      16.44      16.02
C       2.16      11.07      11.11
C       1.10      24.77      22.72
C       5.54       4.04       3.05
C       4.43      17.47      16.94
C       2.21      10.05      10.17
C       6.64      23.95      22.55
C       0.02       4.29       3.82
C       3.30      18.29      17.11
C       3.35       9.80       9.41
C       1.02      27.30      26.33
C       5.56       6.49      26.43
C       4.34      14.94      13.33
C       2.22      13.16      13.23
C       0.98      22.76       0.84
C       5.55       5.45      25.51
C       4.33      13.93      12.38
C       2.21      14.19      14.16
C       6.60       1.09       0.91
C       6.63      27.15      25.42
C       3.28      12.99      12.32
C       3.28      15.10      14.24
C       5.04      14.38       1.91
C       1.45      13.61      24.45
C       1.70      22.31      11.31
C       4.80       6.01      15.20
C       0.13      19.74      24.11
C       6.32       8.33       2.36
C       3.45      22.50      15.55
C       3.00       5.75      10.86
C       6.69      16.60      20.22
C       0.65      11.66       6.00
C       3.37      25.64      19.44
C       3.97       2.42       7.21
C       0.19      13.87       4.21
C       0.03      14.29      21.96
C       3.52      22.82       9.01
C       3.38       5.35      17.70
C       4.26      23.30      23.31
C       2.43       3.64       4.40
C       0.92      18.94      16.35
C       5.76      10.44       8.82
O       2.29      22.59      18.71
O       4.46       5.56       7.70
O       5.62      19.66      20.95
O       1.13       8.52       5.51
O       4.54      19.77      18.49
O       2.16       8.30       8.01
O       1.21      22.47      21.17
O       5.49       5.79       5.20
O       4.54      22.52      18.65
O       2.20       5.56       7.73
O       1.21      19.72      21.01
O       5.53       8.53       5.50
O       5.61      22.39      21.12
O       1.09       5.83       5.26
O       2.28      19.86      18.54
O       4.42       8.25       7.97
O       3.42      21.05      20.66
O       3.30       7.15       5.79
O       0.09      21.19      19.00
O       6.64       6.94       7.43
