139

Zn       1.20       8.04       6.88
Zn       5.38      -4.04       9.00
Zn       4.27       0.28       5.37
Zn       0.09      12.36       3.25
Zn       4.04      -2.80       6.13
Si       8.27       8.15       1.48
Si      -2.80       0.17      10.77
H      -2.98       7.82       5.70
H       8.89       7.61       4.32
H      10.95       9.44       1.00
H      -0.97       9.73       2.42
H       1.33       4.30       9.12
H       1.52       2.53      10.87
H       8.94      11.05       1.37
H       2.97       7.18      11.84
H       1.13      -1.58      11.10
H       6.45       6.05       0.16
H      10.66       6.53       1.06
H       5.31      -1.11      11.99
H       4.33       6.51       4.26
H       6.27       6.16       2.72
H       6.92      10.43       2.65
H       4.98      10.74       4.17
H       4.85       7.94       8.09
H       6.53       6.98       7.07
H       7.22       7.99       5.78
H       8.13       7.75       7.30
H      -5.78      10.22       7.05
H       6.61      10.87       6.40
H       9.56      -2.95       8.15
H       3.17      -3.80       8.40
H       8.45       0.50       6.55
H      -3.41       0.71       7.93
H      -5.48      -1.12      11.25
H       6.44      -1.41       9.83
H       4.15       4.02       3.13
H       3.95       5.79       1.39
H      -3.47      -2.73      10.88
H       2.50       1.14       0.41
H       4.34       9.90       1.15
H      -0.98       2.27      12.09
H      -5.19       1.79      11.20
H       0.17       9.43       0.26
H       1.15       1.81       7.99
H      -0.79       2.16       9.53
H      -1.44      -2.11       9.61
H       0.49      -2.42       8.08
H       0.62       0.38       4.16
H      -1.06       1.34       5.18
H      -1.75       0.33       6.47
H      -2.66       0.57       4.95
H      11.25      -1.90       5.21
H      -1.14      -2.55       5.85
H      -4.09      11.27       4.10
H       2.30      12.12       3.85
C      -0.63       8.94       4.99
C      -1.86       8.80       4.15
C      -3.01       8.20       4.68
C       9.78       8.08       3.89
C       9.76       8.51       2.56
C      10.93       9.10       2.04
C      -1.86       9.26       2.83
C       2.11       6.89       9.33
C       2.14       5.84      10.38
C       1.71       4.54      10.12
C       1.82       3.55      11.10
C       8.15       9.46       0.13
C       8.55      10.78       0.39
C       2.64       6.16      11.65
C       3.57      -2.61      10.55
C       3.25      -1.46      11.45
C       1.93      -1.02      11.60
C       7.49       5.72       0.08
C       8.52       6.46       0.69
C       9.84       5.98       0.58
C       4.28      -0.76      12.10
C       3.41       8.89       5.25
C       4.56       8.64       4.32
C       4.91       7.36       3.90
C       6.00       7.17       3.04
C       6.74       8.27       2.57
C       6.37       9.56       3.01
C       5.29       9.75       3.86
C       5.28       8.95       8.01
C       7.13       7.87       6.87
C       7.08      10.35       7.25
C       6.10      -0.62       7.26
C       7.33      -0.48       8.10
C       8.48       0.12       7.57
C      -4.31       0.24       8.36
C      -4.29      -0.19       9.69
C      -5.46      -0.78      10.21
C       7.34      -0.94       9.42
C       3.37       1.43       2.93
C       3.33       2.48       1.87
C       3.76       3.79       2.13
C       3.66       4.77       1.15
C      -2.68      -1.13      12.12
C      -3.08      -2.46      11.86
C       2.83       2.16       0.60
C       1.90      10.93       1.70
C       2.22       9.78       0.80
C       3.54       9.34       0.65
C      -2.02       2.60      12.17
C      -3.05       1.86      11.56
C      -4.37       2.34      11.67
C       1.19       9.08       0.15
C       2.07      -0.57       7.00
C       0.91      -0.32       7.93
C       0.56       0.96       8.35
C      -0.52       1.15       9.21
C      -1.27       0.05       9.68
C      -0.90      -1.24       9.25
C       0.18      -1.43       8.39
C       0.20      -0.63       4.24
C      -1.66       0.45       5.38
C      -1.61      -2.03       5.00
N       6.47       9.04       7.43
N      -1.00      -0.72       4.82
O      -0.47       8.01       5.87
O       0.16       9.90       4.78
O       2.85       7.91       9.51
O       1.35       6.69       8.31
O       4.83      -2.94      10.50
O       2.66      -3.15       9.88
O       2.79       7.86       5.72
O       3.15      10.09       5.54
O       1.25       9.84       7.73
O       4.66       9.97       8.44
O       5.94       0.31       6.38
O       5.31      -1.58       7.47
O       2.62       0.41       2.74
O       4.12       1.63       3.94
O       0.64      11.26       1.75
O       2.82      11.47       2.37
O       2.68       0.46       6.53
O       2.33      -1.77       6.72
O       4.22      -1.52       4.52
O       0.81      -1.64       3.81
