90

Al       5.59       5.41       5.58
Al       2.67      15.04      15.89
Al       2.22       5.41       5.59
Al       6.03      15.04      15.88
H       2.12       3.13      20.35
H       6.15      17.58       0.88
H       6.24       2.31      19.55
H       2.05      18.38       1.66
H       5.89      19.59      17.96
H       4.70      18.32      17.67
H       4.71      19.78      16.65
H       2.86      19.98      18.24
H       3.37       1.91      18.66
H       4.85      19.82      20.57
H       3.86      18.44      20.06
H       2.41       3.51       1.01
H       3.69       3.80       2.20
H       3.58       4.81       0.74
H       5.41       3.21       0.42
H       4.94       3.95      20.81
H       3.43       0.88       0.68
H       4.44       1.40       2.03
H       3.91       3.71       5.96
H       4.35      16.78      15.67
H       0.55       7.11       6.00
H       7.71      13.33      15.51
C       3.90       6.90       3.70
C       4.35      13.52      17.75
C       3.91       7.10       7.34
C       4.35      13.37      14.12
C       0.55       3.83       7.43
C       7.71      16.64      14.05
C       0.55       3.75       3.85
C       7.70      16.68      17.64
C       6.83       1.87      20.36
C       1.46      18.82       0.84
C       1.55       2.31      20.79
C       6.72      18.40       0.44
C       0.54       2.78       2.80
C       7.71      17.66      18.68
C       5.56       0.64       0.37
C       2.72      20.08      20.83
C       0.31       1.08       0.81
C       7.97      19.62      20.42
C       0.51       2.00       1.86
C       7.76      18.58      19.48
C       7.72      17.60      12.98
C       0.53       2.86       8.50
C       7.76      18.46      12.11
C       0.49       1.99       9.36
C       7.81      19.41      11.16
C       0.44       1.03      10.30
C       3.87       7.73       2.52
C       4.37      12.68      18.92
C       3.81       8.46       1.54
C       4.43      11.96      19.91
C       3.74       9.26       0.47
C       4.50      11.16      20.98
C       3.94       8.05       8.42
C       4.32      12.40      13.05
C       4.01       8.88       9.32
C       4.25      11.56      12.16
C       4.09       9.80      10.29
C       4.17      10.64      11.19
C       3.91      19.55      20.08
C       3.88      20.09      18.64
C       4.85      19.41      17.68
C       4.37       1.38       0.92
C       4.38       2.82       0.38
C       3.46       3.79       1.12
O       2.77       6.73       6.93
O       5.49      13.75      14.52
O       5.05       6.58       4.15
O       3.21      13.85      17.31
O       6.13       4.14       4.27
O       2.13      16.30      17.21
O       5.05       6.73       6.89
O       3.21      13.74      14.56
O       6.12       4.20       7.00
O       2.14      16.27      14.48
O       2.77       6.58       4.18
O       5.49      13.83      17.27
O       3.91       4.63       5.65
O       4.35      15.83      15.84
O       1.69       4.20       7.02
O       6.57      16.28      14.48
O       1.69       4.13       4.29
O       6.56      16.29      17.22
O       0.55       6.22       5.60
O       7.71      14.23      15.86
