49

Zn       5.11       3.12       9.07
Zn       5.24       5.58       7.01
Zn       7.32       3.08       6.73
Zn       7.55       5.17       9.19
H       7.66       6.37       0.18
H      11.22       7.04       7.19
H       4.99       2.13      15.81
H       8.32       9.51       6.77
H       4.37      -0.98       9.10
H       0.81       3.02       7.20
H       1.34       5.27      10.96
H      11.62       7.35      12.13
H       8.80      -1.52      10.84
H      10.56       9.14       8.36
C       6.68       7.83       8.24
C       2.72       4.59       8.18
C       9.89       3.94       7.81
C       6.17       4.55       4.41
C       6.40       3.94      11.60
C       6.13       4.69       2.97
C       6.05       5.00       0.37
C       6.59       3.51      15.63
C      11.79       6.02       9.00
C      11.93       6.12      10.39
C      11.54       7.29      11.05
C       6.51       3.65      14.24
C      11.04       8.38      10.32
C      10.94       8.29       8.93
C      11.31       7.12       8.27
C       6.11       4.84       1.76
C       6.46       3.79      13.03
C       5.78      -0.82       7.55
C       6.88       9.30       8.33
C      11.37       3.87       7.75
C       1.23       4.78       8.30
C       5.95       0.65       7.69
O       6.30       4.24       7.97
O       5.44       5.37       5.06
O       7.26       4.73      11.07
O       6.92       3.63       4.87
O       5.50       3.26      11.00
O       3.22       3.62       8.84
O       9.37       4.66       8.72
O       5.82       7.42       7.40
O       6.79       1.19       6.90
O       7.39       7.13       9.04
O       5.24       1.23       8.58
O       3.32       5.43       7.45
O       9.26       3.23       6.95
