120

Zn      13.03       5.99      12.62
Zn       6.13      15.31       7.12
Zn       0.77      12.85       0.54
Zn       7.67       3.53       6.04
H       1.47       6.41       1.99
H       1.03       4.22       1.50
H       3.21      15.07       3.54
H       4.23       5.27       4.21
H      13.39      10.37       1.58
H       0.33       8.16       2.45
H       4.41       9.54       2.08
H       3.48      11.72       1.18
H       8.37       9.97       4.59
H       7.93      12.17       5.08
H      10.11       1.32       3.04
H      11.13      11.11       2.37
H       6.49       6.02       5.00
H       7.23       8.23       4.13
H      11.31       6.84       4.50
H      10.38       4.66       5.40
H      12.33      12.43      11.17
H      12.77      14.62      11.67
H      10.59       3.78       9.62
H       9.57      13.57       8.95
H       0.41       8.47      11.58
H      13.47      10.68      10.71
H       9.39       9.30      11.08
H      10.33       7.12      11.99
H       5.43       8.87       8.57
H       5.87       6.67       8.08
H       3.69      17.52      10.12
H       2.67       7.73      10.79
H       7.31      12.82       8.16
H       6.57      10.61       9.03
H       2.49      12.00       8.66
H       3.42      14.18       7.76
C       2.59       4.92       2.85
C       1.82       3.94       2.20
C       2.05       2.59       2.43
C       3.04       2.19       3.34
C       3.81       3.17       3.98
C       3.61       4.53       3.73
C       3.05       7.38       2.82
C       0.65      10.13       1.68
C       1.08       8.90       2.16
C       2.45       8.66       2.30
C       3.34       9.70       1.96
C       2.83      10.89       1.48
C       1.26       1.58       1.65
C       4.90       2.79       4.94
C       9.49      11.47       3.73
C       8.72      12.44       4.38
C       8.95      13.80       4.15
C       9.94      14.19       3.24
C      10.71      13.22       2.60
C      10.51      11.86       2.85
C       9.95       9.00       3.76
C       7.55       6.25       4.90
C       7.98       7.49       4.42
C       9.36       7.72       4.28
C      10.24       6.69       4.62
C       9.73       5.49       5.11
C       8.17      14.80       4.94
C      11.80      13.59       1.64
C      11.21      13.92      10.31
C      11.98      14.90      10.96
C      11.75      16.25      10.73
C      10.76      16.65       9.82
C       9.99      15.67       9.18
C      10.20      14.31       9.43
C      10.75      11.46      10.34
C      13.15       8.71      11.48
C      12.72       9.95      11.00
C      11.35      10.18      10.86
C      10.46       9.15      11.20
C      10.97       7.95      11.69
C      12.54      17.26      11.52
C       8.90      16.05       8.22
C       4.31       7.37       9.43
C       5.08       6.40       8.78
C       4.85       5.04       9.01
C       3.86       4.65       9.93
C       3.09       5.63      10.56
C       3.30       6.99      10.31
C       3.85       9.84       9.40
C       6.25      12.59       8.27
C       5.82      11.35       8.74
C       4.45      11.12       8.88
C       3.56      12.15       8.54
C       4.07      13.35       8.06
C       5.64       4.04       8.23
C       2.00       5.25      11.52
N       2.30       6.27       2.56
N       1.51      11.10       1.34
N       9.20      10.12       4.02
N       8.41       5.28       5.24
N      11.50      12.57      10.60
N      12.29       7.74      11.82
N       4.60       8.72       9.14
N       5.39      13.56       7.92
O       4.14       7.38       3.40
O       0.33       2.05       0.92
O       1.61      14.29       1.74
O       4.71      15.71       5.68
O       5.93       3.54       4.94
O      11.04       9.00       3.18
O       7.23      14.34       5.66
O       8.51       2.10       4.84
O      11.61       0.68       0.90
O      12.83      12.84       1.64
O       9.66      11.46       9.76
O      13.47      16.79      12.24
O      12.20       4.55      11.42
O       9.10       3.14       7.48
O       7.88      15.30       8.22
O       2.76       9.84       9.98
O       6.57       4.50       7.50
O       5.29      16.74       8.32
O       2.19      18.16      12.26
O       0.97       6.00      11.52
