122

Zn       2.79       4.08       8.00
Zn       0.78       4.57       4.65
Zn       3.18       6.44       6.27
Zn       0.77       1.63       6.24
H       4.43       4.89      10.70
H      -3.22      -0.21      12.52
H      -0.41      -0.14      11.65
H      -0.18       3.49      12.60
H      -1.64       3.96      11.73
H       2.88       9.63       0.80
H       4.36       9.54       1.75
H       9.72       0.75       5.40
H       1.68       7.15       8.90
H       7.33       1.08       5.71
H       7.64       5.59       2.78
H       1.24       5.89       1.75
H      10.13       5.38       2.64
H      -4.35       5.94       4.35
H      -3.84      10.16       7.64
H      -2.96       7.90       7.54
H       6.64      -4.73      10.00
H       1.96       9.74       8.27
H       5.75      -2.39      10.07
H      -1.43       1.61       8.33
H       6.14      -2.20       8.34
H      -3.05      -4.95      10.61
H       5.61       5.49       4.43
H       3.33       2.37       0.04
H      -3.18      12.04       2.45
H      -4.01      11.09       0.27
H       1.49       3.51      10.90
H      -2.38       0.81       5.75
H       4.93       8.60       8.52
H       2.35      -0.06       4.16
H       2.28       3.70       2.01
H       5.05       1.85       6.73
H       4.11       8.31       3.90
H      -4.08       1.34      12.52
H      -2.34       4.59       3.65
C       4.45       5.71       9.99
C       5.00       2.82       6.24
C       1.59      -1.28       7.22
C      -2.12       3.67       4.18
C       3.31       7.65       3.57
C       2.62      -1.77       8.05
C       2.94       7.28       2.27
C       5.89       3.44       5.34
C       2.46       1.51       2.54
C      -2.42       1.30      11.17
C      -3.08       0.87      12.49
C      -3.00       2.66       4.61
C      -0.26       0.79      12.20
C      -1.19       3.16      12.32
C      -1.00       1.91      11.40
C       1.03       6.77       8.13
C       3.63       7.63       0.98
C       5.03       6.95       0.89
C       3.87       9.15       0.85
C       9.46       3.87       4.17
C      10.13       2.71       4.57
C       9.28       1.70       5.08
C      -0.26       7.17       7.79
C       7.91       1.89       5.26
C       7.25       3.10       4.94
C       8.09       4.05       4.33
C       8.15       5.45       3.74
C      -0.58       2.10       8.79
C       9.70       5.27       3.65
C       4.35      -3.47       8.70
C       3.06      -3.14       8.27
C      -2.80      10.00       7.93
C      -2.29       8.70       7.87
C      -0.29       2.34      10.14
C      -0.94       8.40       8.17
C      -0.21       9.49       8.66
C       6.26      -4.35       9.04
C       5.70      -2.88       9.09
C      -9.44       6.96      12.61
C      -0.57       6.29       6.73
C      -9.13       7.56      11.38
C      -3.36      -5.48      11.51
C       2.82       1.41       0.03
C       2.44       0.82       1.26
C       3.23      -0.54       8.41
C       1.83      -0.43       1.12
C      -3.87      12.70       1.90
C      -4.30      12.12       0.49
C       0.91       3.06      10.10
C      -2.14       1.74       5.25
C       4.72       7.60       8.87
C       4.96       7.01      10.13
C       1.86       6.41       2.47
C       5.27       4.67       5.05
C       2.31       0.97       3.83
C       2.28       2.89       2.74
I      -2.45      -0.51       9.85
I       4.99       4.79       1.34
I       1.90       0.82      12.31
I       8.12      12.14       0.16
N       3.94       5.54       8.77
N       1.47       5.77       7.29
N       0.40       2.60       8.01
N       0.44       5.47       6.43
N       1.32       3.18       8.83
N      -0.87       2.19       5.21
N       4.10       6.71       8.06
N       2.67       0.53       7.88
N       1.63       6.24       3.79
N       4.13       4.77       5.74
N       2.05       1.95       4.72
N       2.03       3.14       4.04
N       3.95       3.64       6.47
N       1.62       0.05       7.11
N       2.53       7.02       4.48
N      -0.86       3.39       4.54
F       0.66      -1.98       6.54
F      -3.21       2.25      10.53
F       5.83       7.53       1.87
F       7.74       6.51       4.58
F       0.17      -1.23       2.78
F      -1.69       6.26       5.99
F       4.28      -0.38       9.25
