48

Al       3.78       4.46       7.41
Al       0.43       4.45       7.46
H      -1.24       5.89       8.42
H       2.07       3.86       5.80
H       0.85       0.28       7.43
H       3.26       0.56       7.50
H      -2.46       8.40       7.49
H       0.53       4.35       0.73
H       0.35       3.70      14.13
H      -2.33       4.07      11.25
H      -2.05       3.99      13.71
H       3.52       5.96       3.59
H       3.39       6.31       1.14
C       2.16       4.09       9.81
C       2.07       6.88       7.55
C      -1.26       4.82       5.03
C      -1.21       2.06       7.39
C       2.10       8.38       7.54
C      -1.28       0.57       7.45
C       0.96       9.19       7.55
C      -0.12      -0.21       7.46
C       4.16      -0.05       7.50
C      -3.35       9.03       7.50
C      -1.25       5.04       3.56
C       2.23       3.97      11.29
C      -0.21       4.64       2.71
C      -0.28       4.76       1.33
C       1.13       3.87      12.15
C       1.26       3.81      13.53
C      -3.20       3.99      11.90
C      -3.05       3.94      13.28
C       4.33       5.64       2.95
C       4.25       5.80       1.57
C      -1.42       5.34       0.73
C       2.53       3.84      14.12
O       3.27       4.01       9.19
O       0.93       6.32       7.44
O      -0.15       4.58       5.61
O       4.39       2.67       7.19
O      -2.40       4.88       5.60
O      -0.07       2.60       7.53
O       1.03       4.30       9.27
O       3.19       6.29       7.67
O      -1.25       5.00       8.05
O       2.10       3.97       6.76
F      -0.28       8.65       7.62
F       0.91       4.05       3.20
F      -0.13       3.80      11.65
