130

Zn       4.61       8.64       7.52
Zn       4.71       5.57       7.40
H       0.65       7.40       5.91
H       0.37       7.42       2.57
H       0.93       3.82      11.49
H       9.47       5.48       3.08
H       1.70       3.60       2.15
H       9.38       5.77      12.73
H       7.13       9.52       9.81
H       3.68       4.20       3.38
H       2.11       9.02       5.23
H       6.11       3.95      10.84
H       0.52      12.75       3.40
H       8.75       6.16       9.87
H       9.55       2.05       7.52
H       8.65      12.32      10.66
H       0.19       1.88       4.69
H       2.87       6.24      11.20
H       6.78       7.42       3.74
H       9.64      10.92       6.09
H      -0.61       2.71       9.80
H       1.72       9.16      10.96
H       8.33       3.79       4.91
H       8.70       8.87      12.02
C       4.48       7.30       4.98
C       6.94       6.76      14.60
C       5.18      11.62       8.30
C       4.13       2.73       6.20
C       3.63      11.54       6.56
C       5.69       2.71       7.93
C       3.57      12.96       6.46
C       5.81       1.31       7.87
C       5.39      13.01       8.12
C       3.97       1.32       6.23
C       4.52      13.69       7.23
C       4.92       7.23       9.98
C       4.84       0.60       7.11
C       2.65      13.69       5.62
C       6.87       0.57       8.52
C       6.51      13.72       8.69
C       2.99       0.55       5.49
C       7.22       7.09       7.36
C       2.23       6.50       8.02
C       9.80       8.11       7.63
C      -0.37       5.47       8.19
C      -0.19       7.55       8.96
C       4.54       6.48      14.19
C       9.66       6.01       6.83
C       0.09       7.13       6.80
C       9.33       6.44       8.99
C       0.75       6.60       8.11
C       8.69       6.98       7.64
C       5.92       7.26      12.33
C       3.59       6.91       2.62
C       4.84       7.01      11.46
C       4.66       7.19       3.49
C       3.66       6.46      11.92
C       5.17       6.88       0.76
C       5.97       7.24       3.03
C       3.46       6.23      13.29
C       6.24       7.14       1.66
C       9.83       9.59       7.40
C      -0.19       4.03       8.48
C       0.20       8.40      10.13
C       9.40       5.17       5.63
C       7.07       7.98      11.74
C       2.22       7.23       3.12
C       1.28       5.15      12.78
C       5.82       6.87      13.69
C       8.70       6.95       2.09
C       1.94       4.94       0.78
C       8.35       6.53      14.12
C       5.78      10.90       9.49
C       3.42       3.58       5.16
C       2.99      10.70       5.49
C       6.39       3.47       9.04
C       1.47      12.98       5.02
C       8.22       1.23       8.66
C       7.77      13.03       9.16
C       3.87       6.58       1.26
C       1.98       1.26       4.61
C       2.27       5.62      13.81
C       7.57       7.18       1.12
C       2.94       5.96       0.34
N       4.38      10.90       7.49
N       4.89       3.39       7.10
O       4.72       8.42       5.52
O       9.39       9.97       6.19
O      -0.03       3.20       7.58
O      -0.29       3.67       9.78
O      -0.57       8.89      10.95
O       1.53       8.56      10.21
O      10.03       5.31       4.58
O       8.44       4.24       5.77
O       7.22       8.04      10.51
O       7.89       8.62      12.57
O       2.02       7.72       4.24
O       5.18       6.17       9.33
O       1.25       7.07       2.23
O       0.41       5.90      12.35
O       1.56       3.95      12.24
O       9.31       7.83       2.70
O       8.88       5.64       2.28
O       1.01       4.54       0.11
O       2.30       4.36       1.97
O       9.33       6.86      14.77
O       8.41       5.84      12.96
O       5.21      10.96      10.57
O       4.61       8.37       9.53
O       6.90      10.27       9.18
O       2.29       4.00       5.31
O       4.20       3.73       4.08
O       3.18      10.97       4.31
O       2.28       9.69       5.96
O       7.47       4.03       8.93
O       5.67       3.38      10.17
O       0.71      12.28       5.68
O       1.31      13.25       3.71
O       8.82       1.41       9.73
O       4.21       6.21       5.55
O       8.68       1.52       7.45
O       8.68      12.82       8.37
O       7.80      12.77      10.48
O       2.20       1.70       3.50
O       0.78       1.33       5.24
O       6.68       8.22       7.52
O       2.79       5.36       8.12
O       2.79       7.59       7.71
O       6.65       6.01       6.99
O      -0.29      10.34       8.23
