182

Zn       9.70       8.89      14.53
Zn       6.93       8.86      14.50
Zn       7.01       8.90      25.66
Zn       9.78       8.86      25.57
H       4.80      10.22      16.03
H       2.29      10.29      16.07
H       4.80       7.46      12.93
H      11.79      10.37      16.03
H      11.87       7.36      13.18
H      14.39       7.35      13.15
H      10.44      13.18      14.64
H      10.40      15.68      14.56
H       6.16      13.11      14.33
H      10.51       4.65      14.28
H       6.22       4.57      14.49
H       6.28       2.08      14.42
H      11.49       9.79      21.21
H      11.46       8.01      21.23
H      11.37       8.00      18.71
H      11.42       9.78      18.71
H       6.21       9.13       0.98
H       6.30       9.02       3.47
H      10.50       8.88       0.82
H       6.19       8.74      10.29
H      10.48       8.98      10.22
H      10.43       8.95       7.72
H      11.94      10.34      24.19
H      14.45      10.42      24.20
H      11.88       7.42      27.13
H       4.91      10.43      24.21
H       4.83       7.29      26.92
H       2.32       7.29      26.96
H       6.24      13.24      25.45
H       6.34      15.72      25.53
H      10.52      13.06      25.72
H       6.18       4.63      25.89
H      10.47       4.59      25.65
H      10.44       2.10      25.68
H       0.55       8.03      12.61
H      16.10      10.62      15.68
H       6.40      17.43      14.13
H      10.30       0.33      14.24
H      10.34       8.64       5.14
H       6.42       8.62       5.97
H      16.13       7.96      27.55
H       0.58      10.56      24.50
H      10.39      17.39      25.93
H       6.43       0.31      25.89
C       8.32      11.49      14.50
C       8.26       8.93      17.11
C       8.34       6.27      14.46
C       8.35       8.86      11.91
C       8.33      11.49      25.57
C       8.45       8.89      23.02
C       8.34       6.27      25.72
C       8.45       8.91      28.22
C       4.20       9.63      15.34
C       2.81       9.66      15.36
C       2.09       8.86      14.45
C       2.81       8.03      13.55
C       4.21       8.08      13.61
C       0.68       8.89      14.49
C      15.96       8.95      14.57
C      14.54       8.94      14.62
C      13.79       9.80      15.47
C      12.40       9.72      15.40
C      12.46       8.04      13.80
C      13.84       8.04      13.79
C       8.30      12.99      14.48
C       9.50      13.72      14.55
C       9.47      15.11      14.51
C       8.24      15.80      14.41
C       7.03      15.07      14.36
C       7.09      13.67      14.39
C       8.30      17.22      14.37
C       8.39       0.54      14.34
C       8.44       1.96      14.33
C       9.65       2.70      14.29
C       9.58       4.09      14.32
C       8.36       4.77      14.40
C       7.17       4.04      14.43
C       7.20       2.65      14.40
C       8.37       8.94      21.53
C       8.27       8.95      18.60
C       9.51       8.94      20.73
C       7.11       8.99      19.40
C       9.46       8.94      19.33
C       7.16       8.98      20.81
C      11.02       8.91      20.77
C      10.97       8.90      19.19
C       8.34       9.00       0.74
C       7.16       9.05       1.50
C       7.22       8.99       2.88
C       8.46       8.89       3.55
C       9.66       8.86       2.79
C       9.57       8.91       1.40
C       8.43       8.85       4.96
C       8.32       8.84       6.19
C       8.27       8.83       7.60
C       7.05       8.78       8.33
C       7.12       8.79       9.73
C       8.34       8.85      10.41
C       9.53       8.92       9.68
C       9.50       8.90       8.29
C      12.53       9.71      24.85
C      13.91       9.74      24.87
C      14.61       8.89      25.74
C      13.88       8.02      26.59
C      12.48       8.07      26.49
C      16.03       8.91      25.72
C       0.75       8.96      25.63
C       2.17       8.95      25.57
C       2.91       9.85      24.76
C       4.30       9.76      24.81
C       4.25       8.00      26.33
C       2.86       8.01      26.35
C       8.37      12.99      25.59
C       7.19      13.75      25.53
C       7.26      15.13      25.57
C       8.50      15.80      25.67
C       9.70      15.04      25.71
C       9.60      13.64      25.68
C       8.47      17.22      25.71
C       8.34       0.54      25.75
C       8.28       1.96      25.78
C       7.06       2.69      25.85
C       7.11       4.08      25.84
C       8.33       4.77      25.76
C       9.53       4.05      25.70
C       9.50       2.66      25.72
C       2.23       7.07      12.55
C      14.34      10.79      16.47
C       5.64      15.65      14.27
C      11.04       2.12      14.21
C      11.06       8.78       3.35
C       5.66       8.74       7.75
C      14.44       7.01      27.55
C       2.36      10.91      23.83
C      11.10      15.59      25.80
C       5.67       2.10      25.93
N       4.88       8.85      14.47
N      11.75       8.88      14.59
N      11.83       8.88      25.66
N       4.95       8.87      25.59
O       9.44      10.93      14.73
O       7.22      10.90      14.27
O       7.16       9.13      16.50
O       9.39       8.70      16.56
O       7.22       6.82      14.69
O       9.45       6.87      14.27
O       9.47       9.09      12.48
O       7.24       8.63      12.49
O       7.19      10.95      25.41
O       9.43      10.89      25.73
O       9.61       9.07      23.53
O       7.38       8.65      23.67
O       9.45       6.83      25.45
O       7.24       6.87      25.96
O       7.32       9.15      27.69
O       9.54       8.69      27.61
O       0.95       7.26      12.15
O       2.89       6.15      12.10
O      15.65      11.11      16.40
O      13.63      11.28      17.32
O       5.51      17.00      14.15
O       4.64      14.95      14.31
O      11.18       0.77      14.20
O      12.03       2.83      14.16
O      11.21       8.66       4.69
O      12.05       8.83       2.63
O       5.54       8.64       6.40
O       4.67       8.78       8.45
O      15.72       7.17      27.97
O      13.77       6.08      27.96
O       1.03      11.15      23.85
O       3.09      11.54      23.10
O      11.26      16.93      25.92
O      12.08      14.86      25.76
O       5.55       0.75      25.94
O       4.68       2.80      26.00
F       5.87       9.01      18.85
F       5.96       9.02      21.44
