92

Zn       3.72       5.73      14.07
Zn       6.47       5.56      14.03
H       2.91       5.52       9.86
H       7.13       5.64       7.22
H       4.90       8.96       3.46
H       5.39       9.34      27.09
H       7.43       5.96      18.36
H       5.41       9.29      24.61
H       7.35       6.02      20.87
H       4.90       9.00       0.99
H       4.44      10.29      13.45
H       6.88       1.36      14.69
H       2.83       5.54       7.35
H       3.81       1.14      14.60
H       1.35       7.65      14.85
H       1.22       4.83      14.08
H       8.64       6.99      15.55
H       9.04       5.37      13.14
H       4.90       2.25       3.46
H       3.15       5.82      18.21
H       3.05       5.86      20.72
H       4.83       2.61      24.62
H       4.87       2.57      27.09
H       4.84       2.21       0.98
H       7.20       5.60       9.73
H       8.33       0.33      16.53
C       4.88       3.04      14.32
C       3.78       5.56       7.88
C       4.98       5.59       7.16
C       4.89       5.60       2.88
C       4.90       4.38       3.59
C       4.88       3.18       2.89
C       4.90       6.83       3.59
C       5.06       5.55       9.94
C       5.29       5.88      18.15
C       5.06       4.71      27.33
C       5.21       7.20      27.33
C       5.10       5.55      11.44
C       5.14       5.95      26.63
C       4.95       3.52      26.58
C       4.93       3.53      25.19
C       5.03       4.73      24.49
C       5.13       5.95      25.20
C       5.23       7.17      24.49
C       5.25       7.20      23.01
C       5.02       4.70      23.01
C       4.01       5.89      20.20
C       4.06       5.86      18.81
C       5.06       8.28      14.03
C       6.48       5.94      18.89
C       6.43       5.97      20.28
C       5.20       5.94      20.92
C       4.83       4.36       0.75
C       4.87       5.60       1.44
C       4.90       6.85       0.75
C       4.85       3.17       1.49
C       4.90       8.03       2.89
C       5.31       8.38      26.58
C       5.33       8.37      25.19
C       5.33       5.82      16.65
C       4.90       8.04       1.49
C       6.03      10.53      14.78
C       5.17       9.76      14.08
C       5.92       0.83      14.68
C       4.81       1.58      14.54
C       0.91       6.68      14.61
C       9.17       6.49      14.73
C       4.93       4.35       5.06
C       4.92       6.85       5.07
C       6.21       5.61       7.81
C       6.25       5.59       9.20
C       3.83       5.54       9.27
S       7.30       9.81      15.84
N       4.94       5.60       5.71
N       5.15       5.95      22.37
N       1.69       5.73      14.25
N       8.50       5.76      13.92
O       3.76       3.66      14.28
O       4.92       3.66      22.36
O       4.92       7.90       5.72
O       5.35       8.24      22.36
O       6.03       3.57      14.17
O       3.99       5.58      12.06
O       6.25       5.52      11.99
O       3.88       7.82      13.96
O       6.15       7.62      14.02
O       4.21       5.91      16.05
O       6.46       5.66      16.09
O       4.95       3.30       5.71
O       6.73       8.80      16.67
O       8.51       9.58      15.07
O       7.61      11.06      16.83
