76

Zn       3.15       5.79       7.24
Zn      10.08       5.83       7.04
H       7.61       8.50       0.93
H       9.70       5.47       2.68
H       5.04       6.01      12.57
H      12.55       8.73      13.49
H       3.39       7.69      11.28
H       9.16       6.11      10.97
H       5.45       8.11       1.96
H       7.28       6.25      11.59
H       0.30       5.28       0.21
H       9.34       1.69       6.95
H       4.36       2.54       6.98
H       6.36       1.17       7.40
H       6.45       9.76       8.07
H       4.22       8.71       8.00
H       9.50      10.19       6.97
H       7.85       7.10       5.71
H       9.13       3.99       8.92
H       7.90       2.63      10.59
H       5.42       2.78      10.76
H       4.15       4.26       9.23
H       5.33       7.16       5.79
C      11.45       3.22       7.12
C      11.46       6.24       9.69
C      11.42       8.40       7.15
C       1.85       5.90       4.54
C      11.15       6.83      11.02
C       2.01       6.04       3.05
C      11.81       8.15      12.94
C      12.13       7.57      11.73
C       9.87       6.69      11.55
C       9.52       7.25      12.79
C      10.51       8.00      13.50
C       8.20       7.08      13.38
C       4.69       6.77       0.41
C       5.67       7.60       1.03
C       6.88       7.84       0.44
C       7.12       6.52      12.63
C       5.88       6.38      13.17
C       2.37       5.89       0.26
C       3.45       6.39       1.06
C       1.11       5.61       0.85
C       0.93       5.71       2.21
C       3.22       6.38       2.46
C       4.25       1.48       7.21
C       5.37       0.71       7.45
C       5.57      10.35       7.79
C       4.32       9.76       7.76
C       3.16      10.50       7.42
C       2.94       0.93       7.25
C       1.74       1.71       7.12
C      10.24       1.07       7.05
C      10.47      10.68       7.09
C      11.60       9.88       7.25
C       8.05       4.04       8.99
C       7.36       3.30       9.92
C       5.95       3.38      10.02
C       5.24       4.21       9.18
C       5.92       4.97       8.21
C       7.35       4.91       8.13
C       7.30       6.48       6.42
C       5.89       6.52       6.47
N       8.01       5.70       7.21
N       5.22       5.77       7.34
N       4.35       6.70       3.37
O       2.76       3.83       7.53
O      10.37       3.79       6.76
O       2.93       6.36       9.24
O      10.51       5.67       9.06
O       2.73       7.72       6.81
O      10.27       7.90       7.35
O       2.88       5.50       5.18
O      10.42       6.14       5.03
O       5.29       5.89       3.41
O       4.30       7.78       3.98
