178

Zn      12.78      14.82       8.61
Zn      18.57      -5.06       9.29
Zn      -3.16      -6.29      11.43
Zn      -1.91      -5.36       8.74
Zn      -3.27      13.10       0.78
Zn      12.88      -0.64      17.12
Zn      -2.02      10.10       0.23
Zn      18.69      10.47       0.91
H     -10.10       4.72      18.34
H      12.66       2.72      14.65
H     -10.18      13.00      13.84
H      12.74      10.98      10.13
H      18.09       6.86       2.90
H      -1.41       6.46       2.18
H      18.10      -1.38       7.48
H      -1.43      -1.85       6.62
H      -0.05      14.60       2.89
H       1.64      10.74       2.04
H       7.88      17.09       7.34
H       9.51      13.17       6.62
H       9.66      -1.60      14.72
H       7.97      -2.97      18.43
H       1.74      -3.99      10.22
H       0.10      -5.50      13.90
H      -5.73      16.73       6.45
H      -7.35      17.18       5.93
H      -6.02      17.19       4.76
H      16.18      10.50       4.01
H      16.01      11.37       2.49
H      14.67      11.36       3.65
H      -4.76      16.01       3.07
H      -3.84      14.60       3.59
H      -4.23      15.87       4.76
H      13.55      12.44       5.50
H      14.43      12.53       7.02
H      14.82      11.25       5.86
H      -3.94      -4.97      15.12
H      -4.82      -6.20      14.22
H      -5.21      -5.91      15.92
H      14.38      -0.98      13.43
H      13.46      -2.19      14.33
H      13.85      -2.47      12.63
H      -6.58      -4.77      17.55
H      -6.40      -3.02      17.65
H      -5.06      -4.00      17.03
H      15.35      -3.44      11.00
H      16.97      -2.75      10.90
H      15.63      -1.77      11.53
C      10.07      15.56       7.76
C      -5.48      -4.70      12.15
C     -10.58      13.43      11.20
C      -0.45      -5.17      11.28
C      -8.63      15.08       6.89
C      20.19      -3.05       7.84
C      13.14       2.28      17.28
C      -8.64      -2.38      16.41
C      -0.58      12.24       1.68
C      -3.52       8.10       1.76
C      -5.47      12.76       2.63
C      10.19      -1.86      17.36
C      -7.81      14.48       5.79
C      -6.29      13.36       3.73
C      -6.73      15.22       5.24
C      16.29      12.67       4.21
C      -5.91      14.61       4.28
C      15.59      13.19       5.31
C      -6.30      -4.10      13.25
C      -7.82      -2.98      15.31
C      -5.98      -4.40      14.60
C      15.52      -2.76      13.96
C      -6.68      -3.75      15.63
C      16.35      -3.24      12.93
C     -10.58       3.59      16.56
C     -10.31       4.77      17.27
C     -10.32       5.99      16.60
C     -10.58       6.08      15.21
C      12.88       4.86      14.53
C      12.87       3.64      15.19
C     -10.58       7.32      14.53
C      13.14       8.39      13.95
C      13.14       9.63      13.27
C     -10.35      10.86      13.95
C     -10.36      12.08      13.30
C      13.14      12.12      11.91
C      12.91      10.94      11.20
C      12.91       9.72      11.87
C      -3.53       6.79       2.47
C      19.01       6.29       3.01
C      19.01       5.07       3.68
C      20.19       4.30       3.83
C      -2.34       4.84       3.26
C      -2.33       6.06       2.60
C      20.19       3.06       4.50
C      20.19       1.99       5.09
C      20.19       0.75       5.76
C      19.02       0.22       6.36
C      19.01      -0.99       7.03
C      20.19      -1.74       7.12
C      -2.35      -1.26       6.55
C      -2.35      -0.04       5.89
C       0.67      12.63       2.40
C       0.78      13.90       2.97
C       1.95      14.26       3.63
C       3.05      13.37       3.75
C       2.89      12.09       3.16
C       1.73      11.72       2.49
C       4.23      13.74       4.43
C       5.26      14.06       5.01
C       6.44      14.42       5.69
C       6.61      15.72       6.26
C       7.77      16.09       6.92
C       8.81      15.17       7.05
C       8.69      13.88       6.51
C       7.53      13.52       5.84
C       8.94      -2.25      16.64
C       8.83      -2.04      15.26
C       7.66      -2.40      14.60
C       6.56      -2.99      15.28
C       6.72      -3.18      16.68
C       7.88      -2.82      17.35
C       5.38      -3.35      14.61
C       4.36      -3.67      14.02
C       3.18      -4.04      13.35
C       3.01      -3.82      11.95
C       1.84      -4.18      11.29
C       0.80      -4.78      11.99
C       0.92      -5.03      13.36
C       2.08      -4.66      14.02
C      -6.45      16.65       5.62
C      15.77      11.41       3.55
C      -4.62      15.31       3.90
C      14.54      12.31       5.96
C      -4.93      -5.42      14.98
C      14.23      -2.06      13.57
C      -6.15      -3.89      17.04
C      16.06      -2.78      11.52
Br      12.52       4.87      12.67
Br      -9.96       7.56      17.60
Br      12.57       8.15      10.87
Br     -10.02      10.85      15.82
Br      -0.71       3.89       3.40
Br      17.38       4.44       4.40
Br      -0.72       0.58       5.14
Br      17.39       1.18       6.24
Br       4.29      10.82       3.28
Br       2.06      16.00       4.37
Br       7.41      11.78       5.12
Br       5.21      16.99       6.12
Br       5.32      -3.97      17.68
Br       7.56      -2.08      12.74
Br       2.20      -4.99      15.89
Br       4.40      -3.02      10.96
O     -10.58      16.51       9.52
O      10.92      14.63       7.97
O      17.66      -4.94      11.03
O     -10.52      14.48      11.93
O      10.17      16.78       8.11
O      13.09      13.39       9.92
O      -4.24      -4.94      12.38
O      -1.31      -5.85      11.94
O      -8.05      15.89       7.70
O      -0.56      -4.80      10.06
O      13.85      14.76       6.97
O      19.12      -3.36       8.47
O      -2.46      -3.75       7.75
O      -3.52      11.32       0.00
O     -10.20       2.29      18.50
O      14.49      -1.26      16.18
O      -0.56      11.13       1.05
O      12.75       1.26      16.61
O      -1.56      13.05       1.77
O      -8.70      -3.00      17.52
O      -2.39       8.57       1.41
O      18.31      11.48       2.55
O      19.06       8.65       1.55
O      -4.88      13.55       1.82
O      11.18      -1.49      16.63
O      10.17      -1.93      18.63
