90

Zn       4.62       8.34       8.11
Zn       4.59       5.54       8.02
H       7.30       2.54      12.47
H       1.91      11.34       3.66
H       6.13      13.16       8.87
H       3.08       0.72       7.27
H       6.66       4.95      12.55
H       2.55       8.93       3.58
H       7.63       6.54      10.94
H       1.58       7.34       5.20
H       9.86       3.35       9.10
H      -0.65      10.53       7.04
H       8.92       1.75      10.75
H       0.29      12.13       5.38
H       0.48       5.24       9.25
H       8.73       8.64       6.88
H       6.16       7.61      14.93
H       3.05       6.27       1.20
H       7.06       0.93       8.93
H       2.15      12.95       7.20
H       9.94       8.62       2.19
H       9.01       8.29       3.66
H      10.08       7.04       2.99
H       7.69       6.52       2.43
H       8.61       6.84       0.96
H       7.74       9.18       0.88
H       6.88       8.91       2.41
H       0.20       5.59      12.47
H      -0.73       5.26      13.94
H      -0.87       6.84      13.14
H       0.60       7.04      15.18
H       1.52       7.36      13.71
H       2.33       4.97      13.73
H       1.47       4.71      15.25
C       4.84       6.98       5.46
C       4.37       6.90      10.67
C       0.53       6.87       7.88
C       8.68       7.01       8.26
C      -0.20       7.87       7.20
C       9.41       6.01       8.94
C       5.35       7.13      15.47
C       3.86       6.75       0.66
C       4.26       6.62      14.74
C       4.95       7.26       1.40
C       3.18       5.98      15.41
C       6.03       7.90       0.73
C       4.27       6.73      13.33
C       4.94       7.15       2.81
C       4.91       7.06       4.02
C       4.30       6.82      12.11
C       5.23      13.68       8.52
C       3.98       0.20       7.61
C       4.15      12.93       8.03
C       5.06       0.95       8.10
C       2.97      13.56       7.58
C       6.24       0.32       8.55
C       7.18       7.07       8.27
C       2.03       6.81       7.86
C       4.25      11.52       8.02
C       4.96       2.36       8.11
C       7.36       4.59      11.80
C       1.85       9.29       4.33
C       7.90       5.49      10.88
C       1.31       8.39       5.25
C       8.81       5.06       9.90
C       0.40       8.82       6.24
C       9.16       3.70       9.86
C       0.05      10.18       6.27
C       8.62       2.80      10.78
C       0.59      11.08       5.35
C       7.72       3.24      11.75
C       1.49      10.64       4.38
C      -0.12       5.97       8.72
C       9.33       7.91       7.42
C       7.22       8.41       1.49
C       8.22       7.31       1.88
C       9.38       7.84       2.72
C       1.99       5.47      14.65
C       0.99       6.57      14.26
C      -0.17       6.04      13.41
N       4.83       3.52       8.09
N       4.38      10.36       8.05
O       4.87       8.10       6.08
O       4.34       5.78      10.06
O       4.74       5.82       5.97
O       4.47       8.06      10.16
O       6.65       8.22       8.32
O       2.56       5.66       7.82
O       6.57       5.95       8.18
O       2.64       7.93       7.96
