80

Zn      -1.39       2.92       6.73
Zn       2.29      -2.91       6.73
H      -1.76       2.23       9.56
H       1.92      -2.23       9.56
H       6.33       3.61       3.90
H       2.65       8.07       3.90
H      -1.65       3.23      11.85
H       2.03      -3.23      11.85
H       6.22       2.60       1.61
H       2.55       9.07       1.62
H      -0.91       7.06       9.94
H       2.77       4.61       9.94
H       5.48      -1.22       3.52
H       1.81       1.23       3.52
H      -1.06       5.89       7.75
H       2.61       5.78       7.76
H       5.64      -0.05       5.71
H       1.96       0.06       5.71
H       0.66       1.41       7.86
H       4.34      -1.41       7.86
H       3.91       4.43       5.60
H       0.24       7.24       5.60
H      -0.66       0.50       7.83
H       3.02      -0.50       7.83
H       5.23       5.33       5.63
H       1.55       6.34       5.63
C      -1.58       3.29       9.70
C       2.09      -3.29       9.70
C       6.16       2.54       3.76
C       2.48       9.13       3.76
C      -1.51       3.85      10.97
C       2.17      -3.85      10.97
C       6.08       1.98       2.50
C       2.40       9.69       2.50
C      -1.24       5.23      11.08
C       2.44       6.44      11.08
C       5.81       0.61       2.38
C       2.14      -0.60       2.38
C      -1.10       5.99       9.91
C       2.57       5.68       9.91
C       5.67      -0.15       3.55
C       2.00       0.16       3.55
C      -1.19       5.34       8.68
C       2.48       6.33       8.68
C       5.76       0.50       4.78
C       2.09      -0.49       4.78
C      -1.08       5.82      12.40
C       2.60       5.85      12.40
C       5.65       0.01       1.07
C       1.98      -0.01       1.06
N      -1.41       4.01       8.58
N       2.26       7.65       8.58
N       5.98       1.83       4.89
N       2.31      -1.82       4.89
N      -1.03      -4.59      12.77
N       2.65       4.59      12.78
N       5.60      10.42       0.69
N       1.92       1.25       0.69
N       1.40       3.86       5.64
N       5.08       7.82       5.63
N       3.17       1.98       7.83
N      -0.51      -1.98       7.83
O       1.84      10.80       0.00
O       2.74      -4.96      13.46
O      -0.33       1.44       7.77
O       3.35      -1.44       7.77
O       4.90       4.40       5.69
O       1.22       7.28       5.69
O       0.29       4.22       6.16
O       3.97       7.46       6.16
O       4.28       1.62       7.30
O       0.60      -1.62       7.30
O       1.66       2.67       5.38
O       5.34       9.00       5.37
O       2.91       3.17       8.09
O      -0.77      -3.16       8.09
O       2.25       4.79       5.38
O       5.93       6.88       5.38
O       2.33       1.05       8.08
O      -1.35      -1.04       8.08
