70

Zn       5.54       7.34      10.26
Zn       9.28       3.17       3.42
H      10.45       6.42       0.74
H       5.51       9.89      11.79
H       2.72       0.77      13.09
H      10.19       8.37      12.04
H       8.43       7.16      10.74
H       3.41       1.13       0.25
H       8.09       6.42       6.10
H       5.56       9.90       8.73
H       8.38       0.77       7.43
H       9.80       8.38       8.48
H      11.55       7.16       9.78
H       6.23       1.12       6.59
H       4.36       4.08      12.94
H       9.30       0.61       1.89
H      12.09       9.73       0.59
H       4.63       2.13       1.64
H       6.38       3.34       2.94
H      11.40       9.38      13.43
H       6.72       4.09       7.58
H       9.25       0.61       4.95
H       6.44       9.73       6.25
H       5.01       2.13       5.20
H       3.26       3.34       3.90
H       8.58       9.38       7.09
C      12.97       6.75      12.51
C      12.47       5.90      13.63
C       6.56       9.62      11.86
C       7.48      10.37      12.58
C       8.81       9.93      12.70
C       9.17       8.75      12.01
C       8.20       8.07      11.29
C       5.28       0.18      13.53
C       7.02       6.75       8.00
C       7.52       5.91       6.89
C      13.42       9.62       8.66
C      12.51      10.37       7.93
C      11.18       9.93       7.82
C      10.82       8.76       8.51
C      11.79       8.08       9.23
C       5.81       0.19       6.99
C       1.84       3.75       1.16
C       2.34       4.60       0.05
C       8.25       0.89       1.82
C       7.34       0.13       1.09
C       6.00       0.57       0.98
C       5.65       1.75       1.67
C       6.61       2.43       2.39
C       9.53      10.32       0.15
C       7.80       3.75       5.67
C       7.29       4.59       6.79
C       1.39       0.88       5.02
C       2.30       0.13       5.75
C       3.64       0.57       5.86
C       3.99       1.75       5.17
C       3.03       2.43       4.45
C       9.00      10.32       6.69
N       6.91       8.48      11.22
N      13.07       8.49       9.30
N       7.90       2.02       2.46
N       1.74       2.02       4.38
O       4.66       6.14      11.54
O      12.80       8.00      12.57
O       6.42       6.14       8.97
O       7.19       8.00       7.95
O      10.15       4.37       2.14
O       2.01       2.50       1.11
O       8.40       4.37       4.71
O       7.63       2.50       5.73
