49

Al       3.79       4.02       6.99
H       1.64      14.17       1.08
H       1.65       9.88       1.08
H       1.75      12.03       4.80
H       2.90       1.79       3.52
H       3.03      -0.34       2.27
H       0.88      -2.31       5.47
H       0.64       5.92      13.14
H       2.87       2.18      10.73
H       2.84       2.19      13.21
H       2.82       8.44       2.22
H       0.67       8.07       6.68
H       0.64      10.25       5.49
C       1.80       4.05       9.04
C       1.79       5.77       5.91
C       1.80       2.22       5.98
C       1.69      12.03       0.91
C       1.66      13.23       1.63
C       1.64      13.25       3.03
C       1.68      12.03       3.72
C       1.70      10.81       3.03
C       1.69      10.82       1.63
C       2.46       0.88       3.94
C       2.51      -0.32       3.23
C       1.97      -1.50       3.77
C       1.36      -1.44       5.03
C       1.33      -0.24       5.72
C       1.86       0.94       5.20
C       1.17       5.10      12.65
C       1.23       5.09      11.26
C       1.81       4.05      10.54
C       2.38       2.99      11.27
C       2.35       2.99      12.66
C       1.73       4.04      13.37
C       2.33       8.39       3.19
C       2.35       7.19       3.88
C       1.77       7.04       5.15
C       1.15       8.18       5.70
C       1.14       9.39       5.04
C       1.72       9.52       3.77
O       0.84       3.01       5.72
O       0.85       3.42       8.48
O       0.85       5.59       6.77
O       2.73       2.43       6.82
O       2.73       4.94       5.69
O       2.74       4.66       8.45
F       0.74      -0.20       6.95
F       0.69       6.14      10.58
F       2.94       6.14       3.26
