64

Al       0.01       7.00       7.90
Al       6.67      14.02      15.85
Al       3.35       7.05       7.93
Al       3.33       2.95      15.88
H       4.16      10.36      10.79
H       2.51       3.34       2.84
H       0.35      11.38      12.90
H       6.33       4.36       4.95
H       3.99      10.83      12.93
H       2.69       3.81       4.98
H       1.07       8.21      12.64
H       1.76       9.85      12.87
H       2.48       8.74      11.66
H       4.92       2.83       4.93
H       5.60       1.18       4.68
H       4.19       1.72       3.71
H       1.63       8.69       8.26
H       5.04       1.67       0.31
H       4.99       5.52       8.79
H       1.69       9.62       0.84
C       1.72       5.20       6.35
C       4.96      12.22      14.31
C       1.65       5.80      10.03
C       5.02       9.90       2.07
C       5.02       8.89       9.45
C       1.65       1.87       1.50
C       5.04       8.16       5.80
C       1.64       4.06      13.75
C       5.01       8.78       4.49
C       1.66       4.68      12.44
C       5.01       9.29       3.39
C       1.67       5.19      11.34
C       6.17      10.06      11.36
C       0.51       3.04       3.41
C       5.09       9.84      10.55
C       1.58       2.82       2.60
C       6.09      10.93      12.54
C       0.59       3.91       4.59
C       4.96      11.24      13.20
C       1.72       4.22       5.25
C       1.55       9.06      12.13
C       5.13       2.04       4.18
O       2.78       5.96       9.46
O       3.90      10.06       1.51
O       0.60       5.51       6.88
O       6.08      12.53      14.84
O       6.18       7.78       6.21
O       0.50       3.68      14.17
O       0.50       6.11       9.57
O       6.17      10.20       1.62
O       6.10       8.54       8.86
O       0.57       1.52       0.91
O       2.85       5.67       6.69
O       3.82      12.69      14.64
O       1.67       7.83       7.82
O       5.00       3.73      15.77
O       3.85       8.46       9.14
O       2.83       1.44       1.19
O       3.93       8.07       6.41
O       2.75       3.97      14.36
O       5.00       6.21       8.11
O       1.67      10.31       0.15
O       0.71       9.52      11.06
O       5.96       2.50       3.10
