54

Al      -3.10       4.46       8.78
Al       0.29       4.47       8.78
H      -1.41       3.94       7.11
H       2.00       5.57      10.19
H      -3.41       8.59       8.69
H       3.98       0.39       8.81
H       4.05       4.71       4.73
H       4.02       4.84       2.24
H      -0.16       5.63       4.83
H       0.76       3.32      12.69
H      -3.47       4.16      12.80
H      -3.43       4.03      15.29
H      -0.55       1.58       8.10
H      -1.35       0.04       8.08
H       1.10       7.32       8.55
H       1.70       8.58       7.65
C       1.94       4.95       6.41
C       2.02       2.08       8.55
C      -1.36       3.96      11.12
C      -1.42       6.87       8.88
C       1.91       0.61       8.51
C      -1.29       8.34       8.69
C       0.66      -0.06       8.36
C      -0.03       8.99       8.60
C      -2.45       9.10       8.58
C       3.07      -0.16       8.64
C       1.95       5.14       4.93
C       3.13       4.94       4.20
C       3.11       5.01       2.81
C       1.91       5.28       2.11
C       0.76       5.52       2.89
C       0.75       5.45       4.27
C       1.86       5.27       0.71
C      -1.27       3.62      16.82
C      -1.32       3.62      15.41
C      -0.16       3.40      14.63
C      -0.16       3.48      13.25
C      -1.36       3.77      12.59
C      -2.54       3.94      13.33
C      -2.52       3.87      14.72
N      -0.50       0.57       8.00
N       1.20       8.33       8.49
O       3.06       4.69       6.97
O       0.94       2.75       8.39
O      -0.24       3.88      10.52
O      -2.58       6.34       8.77
O      -2.48       4.24      10.56
O      -0.35       6.22       9.15
O       0.81       5.05       7.00
O       3.17       2.61       8.74
O      -1.40       3.98       8.08
O       1.99       4.97       9.43
F      -0.41       5.80       2.24
F       1.01       3.13      15.28
