174

Zn       1.93       8.53       5.48
Zn      -1.55       9.06       4.64
Zn       5.41       9.52       5.52
Zn       1.54       0.51      10.17
Zn       5.02      -0.02      11.00
Zn      -1.94      -0.48      10.13
H       1.30       9.09       7.89
H      -2.18       6.69       3.93
H       4.78      11.32       3.82
H       2.18      -0.05       7.76
H       5.66       2.35      11.72
H      -1.30      -2.28      11.82
H      -0.13       8.61       7.22
H       6.83       7.51       3.84
H       3.35      10.98       4.58
H       3.60       0.43       8.43
H      -3.35       1.52      11.80
H       0.12      -1.94      11.06
H       0.35       3.75       5.36
H       7.31      11.55       0.56
H       3.83      11.81       9.72
H       3.13       5.29      10.28
H      -3.83      -2.51      15.09
H      -0.35      -2.77       5.93
H       2.49       2.64       6.11
H      -4.47       2.43      14.87
H      -1.00      -5.05      10.30
H       0.99       6.40       9.54
H       7.95       6.61       0.77
H       4.47      14.09       5.34
H       4.33       6.55       6.10
H       0.85       9.51       2.62
H      -2.63      11.04       6.93
H      -0.85       2.49       9.55
H       2.63      -0.47      13.02
H       6.11      -2.01       8.72
H       4.15       2.50       7.84
H      -2.81       1.00      13.89
H       0.67      -3.48       9.56
H      -0.68       6.54       7.80
H       6.29       8.04       1.76
H       2.81      12.52       6.08
H      -2.04       2.38       7.22
H       1.44       1.60      14.10
H       4.92      -3.97       9.98
H       5.51       6.66       8.43
H       2.04       7.44       1.55
H      -1.44      13.01       5.67
H      -2.24       4.18       5.47
H       4.72      11.23       0.88
H       1.24      11.69       9.29
H       5.72       4.86      10.17
H      -1.24      -2.19      14.77
H       2.24      -2.65       6.36
H       5.98       5.17       4.99
H       2.50      11.16       1.98
H      -0.98      10.78       8.67
H      -2.50       3.87      10.66
H       0.97      -2.12      13.67
H       4.46      -1.74       6.97
C       0.02       6.41       4.79
C       6.98      10.72       3.15
C       3.50       9.98       7.70
C       3.46       2.63      10.86
C      -3.50      -1.68      12.49
C      -0.03      -0.94       7.94
C       1.24       5.70       5.33
C      -2.24      10.60       2.27
C       4.72      10.80       8.04
C       2.24       3.34      10.32
C       5.72      -1.56      13.38
C      -1.24      -1.76       7.60
C       1.26       4.32       5.54
C      -2.22      11.11       0.97
C       4.74      11.68       9.13
C       2.22       4.71      10.10
C       5.70      -2.07      14.68
C      -1.26      -2.64       6.51
C       2.44       3.72       5.94
C      -1.03      11.06       0.25
C      -4.52      12.33       9.46
C       1.03       5.32       9.70
C       4.51      -2.03      15.40
C       7.99      -3.29       6.19
C       3.60       4.49       6.09
C       0.13      10.55       0.85
C      -3.35      12.06       8.71
C      -0.13       4.54       9.56
C       3.35      -1.51      14.80
C       6.83      -3.02       6.93
C       3.48       5.89       5.93
C      -0.00       9.99       2.13
C      -3.48      11.23       7.59
C      -0.00       3.15       9.72
C       3.48      -0.95      13.51
C       6.96      -2.19       8.06
C       4.92       3.90       6.38
C       1.44      10.59       0.18
C      -2.04      12.62       9.08
C      -1.44       5.14       9.27
C       2.04      -1.55      15.46
C       5.52      -3.58       6.57
C       5.04       2.86       7.32
C      -1.93       1.27      14.47
C       1.55      -4.12       9.51
C      -1.56       6.17       8.33
C       5.40       7.77       1.18
C       1.92      13.16       6.14
C       6.29       2.33       7.62
C      -0.67       1.27      13.85
C       2.81      -3.59       9.82
C      -2.81       6.71       8.02
C       4.15       7.77       1.80
C       0.67      12.63       5.83
C       7.43       2.81       6.96
C       0.47       1.61      14.59
C       3.95      -4.40       9.74
C      -3.95       6.23       8.69
C       3.01       7.43       1.05
C      -0.47      13.44       5.91
C       7.32       3.81       6.00
C       3.84      10.96       0.29
C       0.36      12.33       9.35
C      -3.84       5.23       9.65
C      -0.36      -1.93      15.35
C       3.12      -3.29       6.30
C       6.07       4.37       5.72
C       2.59      10.92       0.92
C      -0.89      11.81       9.00
C      -2.59       4.67       9.92
C       0.88      -1.88      14.73
C       4.37      -2.78       6.65
C       6.44       1.32       8.71
C      -0.52       0.83      12.43
C       2.96      -2.14      10.15
C      -2.96       7.72       6.93
C       4.00       8.21       3.22
C       0.52      11.18       5.50
N       2.32       6.46       5.57
N      -1.15      10.01       2.81
N       5.81      10.63       7.26
N       1.15       2.58      10.07
N       4.63      -0.97      12.84
N      -2.33      -1.59       8.38
O      -0.99       5.72       4.50
O       5.97      11.31       2.70
O       2.49      10.07       8.44
O       4.46       3.32      11.14
O      -2.49      -2.27      12.95
O       0.98      -1.04       7.20
O       0.83       8.39       7.34
O       7.79       7.52       3.59
O       4.31      11.20       4.71
O       2.65       0.65       8.31
O      -4.31       1.52      12.05
O      -0.83      -2.16      10.94
O       0.12       7.69       4.63
O      -3.35      10.21       4.34
O       3.61       9.20       6.67
O       3.35       1.35      11.01
O       6.83      -1.18      11.30
O      -0.13      -0.16       8.98
O       5.40       0.67       9.08
O      -1.57       0.84      11.68
O       1.91      -1.50      10.53
O      -1.92       8.37       6.57
O       5.04       8.20       3.97
O       1.56      10.53       5.11
O      -2.85       1.19       9.23
O       0.63       0.45      12.06
O       4.11      -1.62      10.01
O       6.32       7.85       6.42
O       2.85       8.58       3.59
O      -0.63      10.66       5.64
