236

Zn       7.49       8.99      15.50
Zn      27.06      10.72      18.23
Zn       9.03      11.77      15.70
Zn      25.46      11.69      15.61
Zn      18.36       7.21       8.89
Zn      16.84       4.37       8.65
Zn      18.52       5.56       6.18
Zn      20.02       4.45       8.79
Zn      16.19      16.21      22.43
Zn      17.72      15.39      25.17
Zn      16.03      18.08      25.05
Zn      14.53      15.23      24.97
Zn      17.75       4.96      32.01
Zn      14.54       4.84      31.78
Zn      24.91      19.79      31.86
Zn      18.27      17.67       1.95
H      20.69       9.16      11.41
H      24.72       6.92      13.11
H      13.81      14.67      19.59
H       9.87      12.15      21.09
H      12.60      10.55      13.38
H      13.20       5.57      10.92
H      24.04      12.22      21.24
H      19.28      14.71      19.69
H       7.40       7.29      20.98
H      16.18      19.59      19.42
H      24.94      15.48      13.33
H      29.17      18.28      10.99
H      14.29       2.87       1.62
H      13.89       2.67       6.52
H      18.72       8.96       3.46
H      18.19      14.33       4.91
H       3.79       2.66       6.69
H       4.65       2.84       1.17
H      11.74       3.60      29.27
H      20.65      16.66      27.56
H      18.23      11.86      27.83
H      14.08       8.39      29.20
H      30.81      16.35      27.59
H      21.19       3.87      29.41
H      22.79      11.52      12.72
H      21.90      10.92      14.11
H      21.08      11.05      12.54
H      23.45       5.15      10.40
H      22.64       4.55      11.84
H       4.71       5.04      11.94
H      11.65      14.38      16.97
H      12.52      12.86      16.94
H      13.38      14.35      17.42
H      11.05      13.96      23.72
H      12.07      12.53      23.73
H      10.36      12.38      23.27
H      17.30       3.79       3.08
H      16.33       5.24       2.95
H      16.22       4.00       1.67
H      20.32      18.04       5.00
H      10.89       1.92       5.25
H      12.07       1.34       6.46
H      17.33      20.38      27.95
H       9.63       3.28      26.57
H       9.85       4.06      28.16
H      22.79      17.03      30.26
H      23.68      17.52      28.83
H      22.51      16.18      28.72
C       7.51       7.76      18.17
C       9.93      12.25      18.48
C      10.07       9.48      14.16
C      27.06      13.80      14.30
C      24.57       9.34      14.07
C      24.46      12.10      18.38
C      15.73       6.67      10.14
C      16.02       4.02       5.83
C      18.49       8.52       6.26
C      21.08       4.12       6.04
C      20.85       6.75      10.44
C      18.44       2.30      10.03
C      18.82      14.83      22.50
C      18.53      17.84      26.60
C      16.08      19.15      22.27
C      13.44      17.58      26.39
C      13.71      14.63      22.19
C      16.13      13.28      26.49
C      16.17       6.96      30.52
C      22.47      20.07      30.23
C      27.53      20.30      30.62
C      18.42      14.74       2.08
C      12.14       1.56       2.30
C       7.02       1.37       1.87
C      23.57       8.72      13.14
C      21.84       7.36      11.39
C      22.42       9.39      12.67
C      22.99       6.69      11.86
C      21.59       8.68      11.80
C      23.82       7.40      12.73
C      10.95      12.86      19.40
C      12.71      13.98      21.28
C      12.08      13.58      18.93
C      11.59      13.25      21.75
C      12.93      14.11      19.90
C      10.74      12.71      20.77
C      12.36       9.54      13.05
C      13.43       6.59      11.24
C      11.17       8.92      13.36
C      14.62       7.21      10.93
C      12.60       7.43      12.01
C      13.18       8.70      12.28
C      23.26      12.64      20.59
C      20.05      14.29      20.33
C      23.37      12.64      19.21
C      19.93      14.28      21.71
C      21.25      13.68      19.93
C      22.05      13.23      21.00
C       7.45       6.41      20.34
C       7.51       2.80      20.07
C       7.51       6.52      18.96
C       7.46       2.70      21.45
C       7.52       4.15      19.66
C       7.45       5.06      20.74
C      25.96      15.75      13.05
C      28.15      18.01      11.27
C      27.06      15.01      13.47
C      27.06      18.74      10.85
C      27.76      16.92      12.07
C      26.36      16.84      12.25
C      15.04       3.40       4.88
C      13.11       2.17       3.26
C      15.19       3.48       3.47
C      12.97       2.10       4.67
C      14.21       2.85       2.71
C      13.96       2.72       5.43
C      18.60       9.84       4.09
C      18.31      13.45       4.29
C      18.48       9.76       5.47
C      18.42      13.53       2.91
C      18.37      12.11       4.72
C      18.53      11.18       3.66
C       3.62       2.88       5.64
C       4.81       2.61       2.22
C       2.51       3.58       5.20
C       5.91       1.91       2.67
C       3.96       2.96       3.30
C       4.45       2.52       4.56
C      19.52      18.48      27.53
C      21.49      19.45      29.28
C      19.41      19.81      28.00
C      21.60      18.12      28.81
C      20.41      20.24      28.87
C      20.60      17.68      27.94
C      17.23      11.44      27.89
C      15.08       8.80      29.13
C      16.14      12.05      27.29
C      16.17       8.20      29.73
C      15.46       9.98      28.46
C      16.85      10.26      28.56
C      30.94      17.42      27.75
C      29.69      20.47      29.25
C      32.00      18.12      27.21
C      28.63      19.76      29.79
C      30.53      19.61      28.51
C      30.10      18.27      28.49
C      22.02      10.80      13.03
C      23.39       5.28      11.49
C      12.43      13.81      17.48
C      11.25      13.02      23.19
C      16.32       4.16       2.75
C      11.85       1.39       5.38
C      18.31      20.76      27.65
C      22.70      17.16      29.17
S      11.03       7.31      12.72
S      14.75       8.83      11.56
S      22.00      13.36      18.41
S      21.29      13.55      22.52
S       7.58       4.98      18.15
S       7.40       4.25      22.25
S      28.57      15.64      12.89
S      25.54      18.11      11.43
S      18.29      11.30       6.25
S      18.60      11.98       2.14
S       2.47       3.81       3.47
S       5.94       1.67       4.39
S      14.65      11.19      27.54
S      17.67       9.05      29.48
S      31.99      19.81      27.61
S      28.65      18.07      29.40
O      27.08      10.79      16.27
O       7.65       7.63      16.91
O       8.99      11.57      19.03
O      10.26      10.64      14.66
O       7.38       8.85      18.83
O       9.03       8.74      14.30
O      10.07      12.44      17.23
O       8.56      13.30      14.57
O      24.42      10.57      14.38
O      25.92      13.36      14.67
O      25.51       8.58      14.48
O      25.47      11.60      18.99
O      24.29      12.19      17.12
O      18.43       5.39       8.13
O      16.73       7.45       9.95
O      15.89       3.70       7.07
O      18.65       7.43       5.60
O      15.60       5.47       9.71
O      18.33       8.63       7.52
O      16.90       4.81       5.36
O      20.09       4.66       5.42
O      20.99       5.52      10.12
O      21.23       4.00       7.30
O      19.93       7.52      10.01
O      17.30       2.82       9.77
O      19.58       2.73       9.64
O      16.12      16.23      24.40
O      17.90      15.43      21.84
O      18.77      16.64      26.24
O      16.06      19.34      23.54
O      18.88      14.66      23.76
O      16.10      18.03      21.67
O      17.52      18.53      26.24
O      14.35      18.40      26.02
O      13.46      14.63      23.44
O      13.39      16.33      26.12
O      14.74      15.15      21.65
O      17.25      13.89      26.36
O      15.00      13.62      26.00
O      16.13       3.97      32.53
O      17.30       6.57      30.99
O      22.15      21.22      30.70
O      26.66      19.46      31.02
O      15.04       6.39      30.67
O      18.93       3.89      30.86
O      23.53      19.42      30.52
O      18.46      14.56       0.81
O      11.03       1.13       2.77
O      18.38      15.86       2.70
O      12.49       1.51       1.07
O       7.01       1.59       0.61
O       7.92       0.72       2.53
