202

Zn       6.71       9.06      16.59
Zn       9.49       9.05      16.62
Zn       9.23       9.09      31.88
Zn       6.46       9.07      31.85
H      11.66       7.40      17.82
H      14.18       7.37      17.84
H      11.57      10.60      15.18
H       4.61       7.69      18.18
H       4.56      10.46      15.10
H       2.04      10.47      15.04
H       5.86       4.76      16.43
H       5.89       2.26      16.40
H      10.14       4.82      16.75
H       5.92      13.30      16.73
H      10.21      13.35      16.41
H      10.19      15.85      16.37
H      10.27       8.96      20.94
H      11.43       8.95      23.14
H       5.99       9.01      20.74
H       5.68       9.00      27.53
H       4.52       8.97      25.32
H       9.96       9.05      27.73
H      10.31       9.00       3.00
H      10.30       9.01       5.50
H       6.02       8.80       2.97
H      10.31       8.92      12.37
H       6.01       9.12      12.32
H       6.03       9.08       9.82
H       4.29       7.42      30.65
H       1.77       7.40      30.62
H       4.76      10.45       0.13
H      11.33       7.71      30.29
H      11.77      10.32       0.21
H      14.29      10.36       0.25
H      10.09       4.78      31.98
H      10.06       2.28      31.98
H       5.80       4.85      31.67
H      10.02      13.32      31.71
H       5.73      13.38      32.04
H       5.76      15.88      32.03
H      15.81      12.15      15.98
H       0.30       8.45      19.53
H      10.02       0.41      17.91
H       6.04      17.71      17.88
H       6.14       7.59       7.36
H      10.19       7.61       8.01
H       0.15      12.21      32.46
H      15.65       8.47      28.93
H       5.92       0.45      30.47
H       9.92      17.71      30.49
C       7.98       6.44      16.59
C       8.19       9.01      19.21
C       8.07      11.67      16.58
C       8.14       9.07      13.99
C       7.96       6.46      31.85
C       7.76       9.05      29.25
C       7.86      11.70      31.88
C       8.19       8.91       1.34
C      12.24       8.12      17.24
C      13.63       8.11      17.26
C      14.33       9.08      16.52
C      13.57       9.99      15.74
C      12.18       9.91      15.77
C      15.74       9.11      16.57
C       0.46       9.07      16.66
C       1.87       9.05      16.67
C       2.62       8.26      17.57
C       4.01       8.29      17.51
C       3.96       9.84      15.78
C       2.58       9.86      15.76
C       7.99       4.94      16.59
C       6.80       4.21      16.50
C       6.82       2.83      16.49
C       8.04       2.13      16.59
C       9.24       2.87      16.70
C       9.21       4.26      16.68
C       8.04       0.71      16.61
C       8.05      17.40      16.60
C       8.04      15.99      16.56
C       6.84      15.25      16.66
C       6.85      13.86      16.65
C       8.07      13.17      16.57
C       9.27      13.89      16.47
C       9.26      15.28      16.46
C       9.31       8.97      21.46
C       9.27       8.97      22.86
C      10.46       8.96      23.65
C       6.89       8.99      21.35
C       6.80       8.98      22.74
C       5.54       8.97      23.45
C       6.63       9.00      27.01
C       6.68       8.98      25.60
C       5.48       8.98      24.82
C       9.06       9.02      27.12
C       9.15       8.99      25.72
C      10.41       8.98      25.01
C       8.13       8.99      20.71
C       8.00       8.97      23.52
C       7.81       9.02      27.76
C       7.95       8.98      24.94
C       8.17       8.91       2.83
C       9.38       8.96       3.55
C       9.37       8.96       4.94
C       8.15       8.89       5.65
C       6.94       8.83       4.91
C       6.95       8.85       3.52
C       8.16       8.86       7.06
C       8.18       8.88       8.28
C       8.18       8.94       9.69
C       9.39       8.90      10.43
C       9.38       8.96      11.82
C       8.15       9.04      12.50
C       6.95       9.07      11.78
C       6.96       9.03      10.39
C       3.70       8.14      31.22
C       2.31       8.15      31.20
C       1.61       9.12      31.93
C       2.38      10.04      32.70
C       3.76       9.95      32.68
C       0.21       9.16      31.87
C      15.49       9.13      31.78
C      14.08       9.11      31.77
C      13.33       8.30      30.89
C      11.94       8.33      30.95
C      11.98       9.89      32.67
C      13.37       9.92      32.68
C       7.95       4.96      31.84
C       9.15       4.24      31.91
C       9.13       2.85      31.90
C       7.91       2.15      31.80
C       6.71       2.90      31.71
C       6.73       4.29      31.74
C       7.91       0.74      31.77
C       7.91      17.43      31.79
C       7.91      16.02      31.83
C       9.11      15.27      31.75
C       9.09      13.88      31.78
C       7.87      13.20      31.88
C       6.68      13.92      31.96
C       6.69      15.31      31.95
S      14.33      11.26      14.73
S       1.85       7.18      18.76
S      10.82       2.06      16.82
S       5.26      16.08      16.75
S       5.37       8.75       5.75
S      10.97       8.80       9.59
S       2.01      11.12       0.57
S      14.10       7.22      29.70
S       5.13       2.08      31.58
S      10.69      16.10      31.65
N      11.54       9.01      16.52
N       4.66       9.08      16.64
N       4.41       9.04      31.94
N      11.29       9.11      31.82
Cl      11.88       8.97      25.92
Cl       4.06       8.96      22.55
O       6.85       7.00      16.69
O       9.11       7.02      16.49
O       9.33       8.90      18.66
O       7.08       9.14      18.60
O       9.20      11.10      16.73
O       6.95      11.10      16.45
O       7.00       8.95      14.56
O       9.25       9.21      14.58
O       9.10       7.03      31.76
O       6.84       7.04      31.96
O       6.61       8.94      29.80
O       8.86       9.19      29.87
O       6.74      11.13      31.74
O       8.99      11.13      32.03
O       9.33       8.79       0.77
O       7.07       9.04       0.75
O      14.85      12.28      15.87
O      13.27      11.93      14.04
O      15.48      10.71      14.06
O       1.22       8.26      19.80
O       2.89       6.51      19.48
O       0.76       6.48      18.13
O      10.62       1.15      18.15
O      11.81       3.03      17.18
O      10.98       1.19      15.69
O       5.42      16.97      18.09
O       4.25      15.12      17.06
O       5.14      16.97      15.62
O       5.52       7.40       6.62
O       4.35       8.47       4.79
O       5.28       9.87       6.66
O      10.81       7.43       8.76
O      11.98       8.53      10.56
O      11.06       9.89       8.66
O       1.11      12.34      32.57
O       3.06      11.79       1.26
O       0.85      10.58       1.23
O      14.73       8.28      28.66
O      13.06       6.54      28.99
O      15.18       6.52      30.34
O       5.32       1.19      30.24
O       4.14       3.06      31.23
O       4.97       1.20      32.70
O      10.53      16.96      30.29
O      11.70      15.12      31.36
O      10.81      17.00      32.76
