68

Zn       4.53       5.74       6.20
Zn      13.44       4.67       6.49
H       2.93       0.77       4.59
H       4.96       5.23       1.80
H      10.72       5.80       0.54
H      13.08       5.03      10.88
H       5.78       4.83      10.18
H       6.74       4.29       4.97
H       6.52       7.31       7.79
H       8.99       3.12       4.48
H       8.96       7.14       8.35
H      11.46       3.01       4.97
H      11.22       6.00       7.82
H       7.71       9.78       3.98
H      15.34       9.88       7.15
H       8.43       1.58       6.79
H      10.78       1.06       7.29
H      11.76       7.51       5.12
H      12.25       5.55       2.46
C      14.97       5.08       8.93
C      11.61      10.73       6.32
C      12.12       9.42       6.09
C       6.47      -0.17       6.01
C       9.51      10.12       5.13
C      10.14       8.86       4.82
C      11.34       8.49       5.34
C       5.74       0.96       6.49
C       3.90       0.47       5.00
C      13.47       9.12       6.47
C       2.85       5.38       2.27
C      14.02       7.73       6.43
C      15.19       4.95      10.40
C      14.30       4.87      12.65
C      14.08       4.95      11.29
C       4.95       4.82      10.88
C       5.19       4.68      12.27
C      12.87       5.61       0.38
C      13.09       5.51       1.77
C       3.96       5.33       1.39
C       3.76       5.40       0.03
C       9.45       3.77       5.23
C       3.08       5.31       3.75
C      10.79       3.69       5.49
C      10.68       5.37       7.12
C       9.29       5.53       6.91
C       8.66       4.71       5.93
C       7.28       4.91       5.69
C       7.17       6.61       7.29
C       8.51       6.50       7.59
C       3.85       2.66       6.17
C       8.23      10.47       4.65
C       4.51       1.33       5.93
C      14.31      10.13       6.91
C      10.10       0.26       7.00
C       8.77       0.55       6.73
I       9.19       7.51       3.49
I       6.26       1.93       8.32
N       6.58       5.82       6.35
N      11.39       4.50       6.42
Cl       7.87       4.40      11.77
O       4.36       5.64       8.26
O      13.87       4.60       8.46
O      15.26       7.60       6.16
O      13.22       6.78       6.72
O       4.26       5.53       4.17
O      13.59       5.05       4.47
O       4.64       3.65       6.23
O       2.58       2.72       6.20
