202

Zn       3.92       7.70       8.62
Zn      -2.00      27.42       9.32
Zn      19.73      28.65      11.46
Zn      18.43      27.76       8.72
Zn      19.81       9.49       0.81
Zn       3.84      22.99      17.13
Zn      18.51      12.46       0.21
Zn      -2.08      12.08       0.91
H      27.31      15.43      17.21
H       3.56      17.52      13.44
H      26.34      11.70      14.92
H       4.52      13.59      11.50
H      -1.64      17.60       4.52
H      18.07      18.46       2.96
H      -1.45      21.90       5.78
H      17.88      21.82       5.93
H      14.32       7.16       3.61
H      13.08      11.29       3.75
H      11.06       6.32       6.57
H       9.05       9.80       5.02
H       9.33      24.12      13.68
H      10.57      26.44      17.10
H      12.59      26.18      11.38
H      14.60      26.72      15.16
H      18.42       6.00       0.23
H       5.23      20.64      14.49
H      20.39      31.61      15.05
H       3.26      12.31       9.21
H      -0.45      15.39       1.81
H      16.88      14.99       2.54
H      -0.67      23.02       8.35
H      17.10      24.59       5.51
H      17.20       7.27       4.02
H      13.92      12.38       1.18
H       0.91      26.64       6.99
H       6.58      10.26       7.73
H       6.45      24.52      13.54
H       2.51      12.86       0.32
H      15.52      25.37       9.30
H      17.07      29.26      14.11
C       6.61       6.96       7.79
C      22.03      27.06      12.16
C      27.26       9.03      11.21
C      17.04      27.55      11.27
C       1.62       7.45       6.90
C      20.04      25.48       7.85
C       3.61      20.09      17.32
C       1.62      24.70      16.43
C      17.15      10.33       1.68
C      20.04      14.41       1.74
C      -1.62       9.81       2.63
C       6.50      24.17      17.38
C       0.79       8.05       5.81
C      -0.79       9.20       3.72
C      23.33       7.37       5.27
C       0.32       9.87       4.25
C      22.55       7.94       4.26
C       1.09       9.32       5.28
C      22.86      26.46      13.25
C      24.44      25.30      15.34
C      22.56      26.68      14.61
C       1.10      25.09      13.99
C      23.32      26.11      15.63
C       0.32      25.64      12.97
C       3.61      18.79      16.60
C      27.27      17.58      17.33
C      27.27      16.37      16.65
C       3.61      16.33      15.24
C       3.60      17.54      14.52
C       3.60      18.77      15.19
C      27.26      15.10      14.56
C      27.26      14.03      13.97
C      27.26      12.79      13.29
C      26.75      11.63      13.91
C      26.74      10.41      13.23
C      27.26      10.33      11.93
C       4.12      11.48      11.30
C       4.11      12.70      11.97
C      20.04      15.71       2.46
C      -2.49      16.09       3.23
C      -2.49      17.32       3.90
C      20.04      18.17       3.82
C      18.92      17.78       3.05
C      18.92      16.56       2.38
C      20.04      19.41       4.50
C      20.04      20.48       5.09
C      20.04      21.71       5.78
C      -2.39      22.36       6.09
C      -2.39      23.58       6.76
C      20.04      24.18       7.14
C      18.82      23.54       6.83
C      18.82      22.32       6.15
C      15.91       9.94       2.40
C      15.67       8.58       2.70
C      14.52       8.21       3.38
C      13.57       9.18       3.76
C      13.81      10.54       3.44
C      14.97      10.91       2.77
C      12.39       8.81       4.44
C      11.37       8.48       5.03
C      10.19       8.10       5.71
C      10.16       6.92       6.48
C       9.00       6.54       7.16
C       7.85       7.35       7.07
C       7.87       8.54       6.31
C       9.04       8.90       5.63
C       7.74      24.57      16.67
C       7.98      24.10      15.36
C       9.13      24.49      14.68
C      10.08      25.32      15.31
C       9.84      25.77      16.62
C       8.68      25.41      17.29
C      11.26      25.70      14.62
C      12.28      26.02      14.03
C      13.46      26.40      13.35
C      13.49      26.42      11.94
C      14.65      26.79      11.26
C      15.80      27.15      11.99
C      15.78      27.14      13.40
C      14.61      26.76      14.07
C      27.48      17.49      18.83
C       3.39      19.98      14.31
C      26.07       9.22      13.89
C       4.79      11.40       9.95
C      -1.32      15.18       3.55
C      17.75      16.36       1.43
C      -1.07      24.30       6.96
C      17.50      24.09       7.33
C      16.60       7.50       2.20
C      15.25      12.39       2.57
C       9.16       5.37       8.10
C       6.65       9.37       5.98
C       7.05      23.11      14.71
C       8.40      26.02      18.65
C      14.49      26.97       9.76
C      17.00      27.30      14.28
O      20.04      28.51       9.53
O       5.78       7.88       8.06
O      -1.06      27.19      11.02
O      27.40       7.99      11.93
O       6.48       5.72       8.07
O       3.47       9.09       9.94
O      20.84      27.39      12.46
O      17.87      28.27      11.91
O      24.71       6.55       7.61
O      17.17      27.13      10.07
O       2.81       7.88       7.02
O      -2.62      25.69       8.63
O      19.05      26.24       7.62
O      -3.61      11.26       0.00
O      26.82      20.09      18.52
O       2.30      23.67      16.13
O      17.05      11.34       0.90
O       4.05      21.10      16.68
O      18.18       9.63       1.91
O      25.22      25.27      17.57
O      18.90      13.91       1.46
O      -1.57      11.07       2.51
O      -2.47      13.91       1.47
O      21.35       9.00       1.92
O       5.47      23.99      16.66
O       6.60      24.05      18.65
O      19.21       5.54       0.61
O      21.38       5.25       0.19
O       4.44      20.71      13.90
O       2.27      20.20      13.87
O      19.49      31.22      14.96
O      24.99       8.79      13.54
O       4.16      12.03       8.93
O       5.88      10.87       9.77
O      -0.25      15.13       2.73
O      -1.30      14.61       4.63
O      16.68      15.64       1.82
O      17.73      16.96       0.37
O      -0.22      23.73       7.85
O      -0.74      25.28       6.32
O      16.65      24.54       6.38
O      17.17      24.07       8.50
O      17.29       6.82       3.15
O      16.68       7.17       1.03
O      14.45      13.03       1.68
O      16.08      13.00       3.21
O       1.58      26.65       7.71
O       2.53      28.06       9.16
O       6.27      10.37       6.80
O       6.10       9.21       4.90
O       6.36      23.55      13.63
O       6.97      21.94      15.06
O       1.98      13.62       0.60
O       7.56      26.89      18.83
O      14.85      25.98       8.92
O      13.90      27.95       9.34
O      17.38      28.53      14.69
O      17.55      26.31      14.72
F      22.98       6.15       5.69
F       0.72      11.07       3.78
F      21.49       7.24       3.84
F       2.11      10.05       5.75
F      21.54      27.47      14.98
F       2.16      24.36      13.61
F      22.93      26.35      16.89
F       0.67      25.34      11.71
