294

Zn      -1.51      -2.15      10.97
Zn      10.50       2.08       3.56
Zn      -1.52      10.60       3.57
Zn       7.45      10.52       3.41
Zn      -4.57       6.29      10.83
Zn       7.46      -2.23      10.82
H       1.46      -1.36       9.37
H       7.84       4.29       3.45
H      -1.76       7.69       5.44
H       4.48       9.73       5.02
H      -1.90       4.08      10.94
H       7.70       0.68       8.95
H       3.14       0.54       9.61
H       6.59       5.63       5.22
H      -0.53       6.80       7.48
H       2.80       7.83       4.78
H      -0.66       2.74       9.17
H       6.46       1.57       6.91
H       0.93       2.08      12.77
H       9.20       4.21       8.13
H       1.66      10.33       7.67
H       5.01       6.29       1.61
H      -3.27       4.16       6.26
H       4.28      -1.96       6.72
H       3.04      10.99       0.83
H      -5.45       1.31       9.96
H       9.36      -2.50       6.06
H       2.90      -2.61      13.56
H      11.39       7.06       4.43
H      -3.43      10.87       8.33
H       1.21      11.76       2.36
H      -3.95      -0.10      11.40
H      10.70      -0.43       5.55
H       4.72      -3.39      12.02
H       9.89       8.47       2.99
H      -4.76       8.80       8.84
H      -0.47       7.99       2.50
H      -1.52      -1.03       8.18
H       7.69       1.09       3.14
H       6.41       0.39      11.89
H       7.46       9.40       6.21
H      -1.76       7.28      11.25
H       1.27       7.06       0.96
H      -2.92       0.32       6.61
H       6.24      -0.91       3.54
H       4.67       1.31      13.43
H       8.86       8.05       7.78
H      -0.30       9.28      10.84
H      -4.54      -3.06      12.44
H      13.13      -0.21       3.49
H      -1.38      13.43       1.55
H      10.47      11.43       1.95
H      -7.20       8.58      10.90
H       7.32      -5.06      12.84
H      11.28      -4.87      11.98
H       8.36      14.89       1.68
H      -8.33       5.94      13.77
H      -5.35      13.24       2.41
H      -2.43      -6.52      12.71
H      14.27       2.43       0.62
H       7.77      10.34       8.77
H      -0.20       8.17      13.33
H       7.19       2.31      13.69
H      -1.84      -1.97       5.61
H       6.13       0.20       1.06
H      -1.25       6.06       0.70
H       1.64      -2.81       6.75
H       6.30       3.94       0.90
H      -3.19       5.56       3.87
H       4.30      11.18       7.64
H      -0.37       4.43      13.49
H       9.13       2.81      10.52
H      -2.46      13.05       5.05
H      -1.13      -3.00      13.84
H      13.13       3.40       4.23
H       8.40      -4.68       9.34
H       7.07      11.37       0.54
H      -7.20       4.97      10.16
H      -4.33       9.41       4.45
H       0.70      -4.35      10.38
H      10.31       4.35       1.35
H      10.27      -1.04       9.94
H       5.24      12.72       4.01
H      -4.38       4.02      13.04
H      -6.14       9.97       6.09
H       2.38      -5.67      11.68
H      11.44       6.53       0.85
H      12.07      -1.60       8.29
H       3.56      14.04       2.71
H      -5.50       1.84      13.54
C       1.35      -0.58      10.13
C       8.14       4.29       4.50
C      -1.00       8.27       5.95
C       4.58       8.95       4.26
C      -2.20       4.08       9.89
C       6.93       0.10       8.44
C       2.27       0.47      10.27
C       7.45       5.01       5.48
C      -0.31       7.79       7.07
C       3.67       7.90       4.12
C      -1.52       3.36       8.91
C       6.24       0.58       7.32
C       1.06       1.32      12.00
C       8.88       4.23       7.08
C       0.90       9.72       7.18
C       4.88       7.05       2.39
C      -2.94       4.14       7.30
C       5.04      -1.35       7.21
C       0.13       0.27      11.89
C       9.58       3.50       6.11
C       0.21      10.23       6.06
C       5.81       8.10       2.50
C      -3.65       4.87       8.27
C       5.72      -1.86       8.33
C      -1.03       0.11      12.75
C      10.75       2.68       6.40
C       0.45      11.55       5.49
C       6.96       8.26       1.64
C      -4.81       5.69       7.99
C       5.49      -3.18       8.90
C      -2.59       0.29      14.14
C      12.32       1.58       7.24
C       1.13      13.45       4.95
C       8.52       8.08       0.25
C      -6.39       6.79       7.15
C       4.81      -5.08       9.44
C       2.28       8.96       0.75
C      -4.32       0.90       8.16
C       7.70      -1.88       4.81
C       3.66      -0.59      13.64
C      10.25       7.47       6.23
C      -1.77      10.25       9.57
C       2.28      10.29       1.18
C      -4.58       0.81       9.53
C       8.96      -1.72       5.41
C       3.66      -1.92      13.20
C      10.52       7.56       4.85
C      -3.03      10.09       8.97
C       1.27      10.72       2.04
C      -3.75       0.03      10.33
C       9.70      -0.58       5.13
C       4.67      -2.35      12.35
C       9.69       8.34       4.06
C      -3.77       8.95       9.26
C       0.33       8.62       2.11
C      -2.40      -0.50       8.53
C       8.02       0.27       3.79
C       5.61      -0.24      12.28
C       8.33       8.87       5.86
C      -2.09       8.10      10.60
C       1.29       8.10       1.26
C      -3.18       0.25       7.66
C       7.22      -0.83       4.01
C       4.65       0.27      13.13
C       9.11       8.12       6.72
C      -1.29       9.20      10.38
C      -4.42      -3.77      11.62
C      12.75      -0.21       2.47
C      -2.09      12.78       1.03
C      10.36      12.14       2.77
C      -6.82       8.59      11.92
C       8.03      -4.41      13.36
C      12.18      -4.77      11.36
C       7.52      15.54       1.47
C      -8.54       4.98      14.24
C      -6.25      13.15       3.02
C      -1.58      -7.17      12.92
C      14.47       3.39       0.15
C       7.63      11.04       9.60
C       0.21       8.16      14.34
C       7.89       2.98      14.18
C      -1.70      -2.67       4.78
C       5.73       0.21       0.05
C      -1.96       5.39       0.21
C      -3.16      -4.50       9.83
C      11.21       0.58       0.95
C      -3.20      10.76       0.97
C       9.10      12.87       4.56
C      -5.27       7.79      13.44
C       9.14      -2.39      13.41
C      -1.98      -4.28       9.01
C      10.04       1.42       0.73
C      -3.38       9.46       1.59
C       7.92      12.65       5.38
C      -4.11       6.95      13.66
C       9.32      -1.08      12.79
C      -0.42      -4.30       7.62
C       8.39       2.50       0.03
C      -3.92       7.52       2.19
C       6.35      12.67       6.77
C      -2.45       5.87      14.36
C       9.86       0.85      12.20
C      -5.28      11.90       6.57
C       1.58      -5.04      13.59
C      12.97       6.23       2.34
C      11.21      -3.53       7.82
C       4.35      13.41       0.80
C      -7.04       2.15      12.05
C      -4.23      12.78       6.25
C       0.56      -4.29      14.20
C      13.46       5.32       3.29
C      10.17      -4.41       8.14
C       5.37      12.66       0.19
C      -7.53       3.05      11.10
C      -3.29      12.40       5.31
C      -0.34      -3.61      13.41
C      12.79       4.12       3.49
C       9.23      -4.03       9.08
C       6.28      11.98       0.98
C      -6.86       4.25      10.90
C      -4.34      10.37       4.97
C       0.67      -4.36      11.47
C      11.22       4.65       1.88
C      10.28      -2.00       9.42
C       5.26      12.73       2.92
C      -5.29       3.73      12.51
C      -5.34      10.68       5.88
C       1.61      -5.09      12.19
C      11.84       5.86       1.60
C      11.27      -2.31       8.51
C       4.32      13.46       2.20
C      -5.91       2.51      12.79
N       0.29      -0.67      10.93
N       9.19       3.52       4.82
N      -0.73       9.48       5.45
N       5.65       9.04       3.45
N      -3.25       4.85       9.57
N       6.67      -1.11       8.94
N       2.12       1.43      11.20
N       7.82       4.98       6.77
N       0.65       8.51       7.68
N       3.82       6.94       3.19
N      -1.88       3.39       7.61
N       5.29      -0.14       6.71
N      -1.49       0.96      13.69
N      11.28       2.37       7.60
N       1.40      12.44       5.82
N       7.43       7.41       0.70
N      -5.34       6.00       6.79
N       4.54      -4.07       8.57
N      -1.80      -1.00      12.63
N      11.42       2.10       5.38
N      -0.35      11.98       4.48
N       7.73       9.37       1.76
N      -5.49       6.27       9.01
N       6.28      -3.61       9.91
N      -2.80      -0.90      13.52
N      12.44       1.39       5.90
N       0.07      13.21       4.13
N       8.74       9.27       0.87
N      -6.50       6.98       8.49
N       5.86      -4.84      10.26
N       0.29       9.91       2.48
N      -2.69      -0.63       9.84
N       9.26       0.40       4.31
N       5.64      -1.54      11.91
N       8.62       9.00       4.55
N      -3.32       7.97      10.08
N      -3.32      -3.64      10.87
N      11.71       0.58       2.21
N      -2.33      11.59       1.60
N       9.26      12.01       3.52
N      -5.77       7.79      12.18
N       8.27      -3.22      12.79
N      12.35      -5.66      10.37
N       7.06      15.56       0.20
N      -9.42       4.18      13.62
N      -6.41      14.03       4.02
N      -1.12      -7.19      14.18
N      15.36       4.19       0.76
N      -1.20      -3.20       9.26
N       9.49       2.05       1.80
N      -2.62       9.14       2.67
N       7.14      11.57       5.12
N      -3.56       6.32      12.59
N       8.56      -0.77      11.72
N      -0.20      -3.20       8.38
N       8.43       2.75       1.36
N      -2.95       7.90       3.06
N       6.13      11.57       6.01
N      -2.50       5.62      13.03
N       8.89       0.47      11.33
N      -7.32      11.55       7.97
N       3.58      -6.51      13.98
N      13.32       8.46       1.25
N      13.26      -3.17       6.42
N       2.36      14.88       0.41
N      -7.38      -0.09      13.14
N      -3.32      11.21       4.69
N      -0.28      -3.62      12.06
N      11.68       3.79       2.82
N       9.26      -2.84       9.70
N       6.22      11.99       2.33
N      -5.74       4.58      11.57
