32

H       4.17       8.68       2.20
H       4.72       5.17      -3.80
H       6.06       8.44      -6.29
H       5.92      10.49       6.38
H       3.51       6.79       1.14
H       5.03      10.69      -3.01
H       5.44      12.83      -0.81
H       7.72      13.67       4.06
C       7.39      12.98       4.84
C       6.53      11.88       4.71
C       5.08       5.80      -4.61
C       5.31       7.19      -4.57
C       4.20       8.53       0.05
C       4.52       9.19      -1.17
C       4.83      10.56      -1.12
C       4.98      11.24       0.10
C       4.84      10.53       1.32
C       4.36       9.21       1.26
C       4.68       8.53      -2.41
C       5.30      11.09       2.54
C       5.87      11.44       3.56
C       5.78       7.48      -5.86
C       5.02       8.02      -3.47
C       6.47      11.35       6.02
C       3.76       7.13       0.10
N       5.38       5.31      -5.82
N       5.81       6.36      -6.61
N       7.22      12.10       6.84
N       7.80      13.12       6.13
O       3.64       6.37      -0.85
O       5.08      11.30      -2.24
O       5.35      12.54       0.12
