55

C       9.42       4.17       4.22
C       3.27      -2.28      12.56
C       4.25      -1.62      14.39
C       5.24      -1.73      13.44
H      10.00      -0.40       4.51
H       9.10      -2.44       5.57
C       5.23      -2.32      11.02
C       6.37      -1.56      10.71
H       6.04      -0.09       7.50
C       4.71      -3.21      10.07
H       6.99       1.96       6.50
C       5.30      -3.30       8.82
H      11.23       1.64       5.12
C       6.98      -1.69       9.47
H       9.29       5.19       3.88
C       6.43      -2.54       8.50
H       2.53      -2.59      11.83
C       6.97      -3.78       6.44
H       4.34      -1.32      15.43
H       6.31      -1.61      13.50
C       6.66      -8.57       2.29
H       6.78      -0.87      11.45
C       7.70      -8.38       4.19
H       3.84      -3.82      10.31
C       6.32      -7.34       2.79
H       4.87      -3.97       8.07
C       6.97      -6.08       4.84
H       7.88      -1.11       9.25
C       7.34      -6.16       6.19
C       6.58      -4.85       4.30
H       6.33      -9.04       1.37
C       6.57      -3.72       5.10
H       8.33      -8.56       5.04
C       7.35      -5.01       6.99
H       5.69      -6.55       2.38
H       7.64      -7.11       6.64
C       8.46       3.26       4.55
H       6.29      -4.77       3.26
H       6.26      -2.77       4.67
H       7.67      -5.07       8.03
H       7.38       3.32       4.55
N       3.04      -1.96      13.83
C       7.51      -1.41       6.61
N       4.61      -2.15      12.28
C       7.43       0.99       6.27
N       7.01      -2.59       7.21
C       9.14      -0.33       5.18
C       8.63      -1.48       5.77
N       7.51      -9.21       3.17
C       6.91      -0.16       6.84
N       6.99      -7.22       4.00
C       8.55       0.91       5.45
N      10.67       3.60       4.41
N       9.13       2.10       4.93
C      10.47       2.35       4.83
