48

H       0.73       6.12       9.50
H      -1.19      10.30       7.76
H      -0.52      11.91       9.27
H       0.26      13.77      10.71
H       1.85      13.31      12.57
H       2.67      10.99      12.97
H       1.89       9.14      11.54
H       1.11       5.35       6.85
H       0.63       3.50       5.28
H      -1.70       3.12       4.48
H      -3.55       4.61       5.27
H      -3.07       6.46       6.82
C      -5.64       8.13       8.91
C       5.22       8.33       8.72
C       0.31       7.05       9.12
C      -0.74       9.39       8.18
C      -0.62       7.99       9.90
C       0.21       8.46       7.41
C      -4.20       8.13       8.87
C       3.78       8.38       8.69
C      -0.61       7.16       7.85
C       0.17       9.29       9.45
C      -1.59       8.14       8.64
C       1.16       8.29       8.65
C      -2.99       8.12       8.75
C       2.57       8.36       8.65
C       0.61      10.40      10.31
C       0.17      11.71      10.09
C       0.61      12.75      10.90
C       1.50      12.50      11.94
C       1.96      11.19      12.17
C       1.51      10.15      11.36
C      -0.95       6.04       6.95
C       0.09       5.19       6.51
C      -0.19       4.15       5.62
C      -1.49       3.94       5.17
C      -2.52       4.77       5.61
C      -2.25       5.82       6.49
N      -1.15       7.78      11.24
N       0.68       8.67       6.04
O      -6.21       7.06       8.53
O       5.84       9.39       8.40
O      -6.21       9.20       9.31
O       5.73       7.21       9.05
O      -1.81       8.72      11.71
O      -0.93       6.69      11.79
O       0.12       9.54       5.36
O       1.61       7.93       5.66
