34

H       8.50      14.13       8.45
H      11.68      15.77      10.88
H       5.27      12.15      14.34
H       8.89      13.04      16.55
H       7.29      13.80      10.40
H       7.34      15.29      11.34
H       6.19      14.11      12.98
H       6.53      12.55      12.21
H       9.13      12.06      10.83
H       8.56      11.18      12.93
H      10.71      14.77      12.83
H       9.50      16.01      12.49
H       8.10      15.26      14.21
H       9.50      14.34      14.77
H      10.65      12.55      11.57
H       9.88      12.03      13.73
C       9.38      14.62       8.86
C      11.00      15.45      10.10
C       9.82      14.70      10.19
C       6.05      12.34      15.08
C       7.89      12.79      16.20
C       7.39      12.72      14.89
C       7.64      14.23      11.35
C       6.99      13.50      12.54
C       9.56      12.66      11.65
C       9.63      14.94      12.67
C       9.18      14.14      11.43
C       8.05      13.18      13.62
C       9.05      12.16      13.03
C       8.83      14.49      13.91
N      10.23      15.28       8.04
N      11.23      15.80       8.82
N       5.77      12.23      16.40
N       6.91      12.51      17.10
