32

H       6.99       9.95       3.87
H       6.90       8.68      10.57
H      11.16       9.04       3.77
H      12.29       7.72       8.24
H      11.07       7.64      10.41
C       9.07      10.05       2.32
N       5.41       9.76       5.91
O       7.95      10.37       1.83
O      10.21      10.19       1.72
H       5.47      10.25       5.02
H       4.66      10.15       6.47
H       5.72       9.47       8.52
O      10.06       7.41      12.57
H      12.31       8.17       5.81
O       7.80       7.52      12.58
C       7.82       8.59       9.98
C       8.96       7.68      12.02
C       7.81       8.89       8.61
C       7.82       9.35       5.80
C       6.60       9.50       6.57
C       6.63       9.32       7.94
C       7.87       9.62       4.43
C       9.07       9.54       3.72
C      10.18       8.00       9.89
C      10.21       8.27       8.52
C       9.02       8.70       7.86
C      11.40       8.08       7.74
C      11.40       8.32       6.39
C      10.23       8.79       5.71
C       9.02       8.95       6.47
C      10.24       9.11       4.35
C       8.98       8.14      10.61
