26

O       7.72      -2.68      14.17
O       6.56      -1.47      15.71
O       1.86      -6.52      15.66
O       3.11      -7.61      14.11
H       6.55      -4.61      16.62
H       7.15      -5.13      15.04
H       5.57      -6.85      15.02
H       4.97      -6.32      16.60
H       4.60      -5.92      12.92
H       3.29      -4.74      12.97
H       6.16      -4.17      12.92
H       4.84      -3.00      13.01
H       4.68      -2.89      16.76
H       3.99      -2.22      15.29
H       2.41      -3.95      15.25
H       3.10      -4.61      16.72
C       6.72      -2.48      14.94
C       2.87      -6.63      14.89
C       6.24      -4.84      15.59
C       5.19      -5.98      15.58
C       3.89      -5.49      14.91
C       4.22      -5.05      13.47
C       5.25      -3.90      13.49
C       5.65      -3.56      14.94
C       4.40      -3.14      15.73
C       3.35      -4.28      15.70
