16

O       7.97      10.10       9.13
O       7.95       8.03       8.25
O      15.06       8.07       9.33
O      15.04      10.05       8.24
C       8.54       9.06       8.68
C      14.47       9.05       8.79
C      10.07       9.05       8.69
C      12.94       9.04       8.79
C      10.81      10.24       8.62
C      12.21       7.84       8.72
C      12.20      10.25       8.81
C      10.80       7.84       8.80
Br       9.99      11.89       8.14
Br      13.08       6.17       8.46
Br      13.05      11.90       9.22
Br       9.94       6.18       9.13
