18

C       8.02       5.59      13.04
C       9.42       5.61      13.05
C       7.24       6.00      11.84
H       9.97       4.38      16.18
O       7.83       6.10      10.71
O       5.99       6.20      11.97
H       9.97       5.95      12.17
O      12.19       4.30      14.91
H       6.24       5.16      14.18
C       7.33       5.16      14.18
C      10.12       5.16      14.18
C      11.61       5.16      14.18
C       8.02       4.73      15.31
C       9.42       4.72      15.31
C       7.24       4.33      16.52
O       7.83       4.23      17.64
O       5.99       4.13      16.39
O      12.19       6.03      13.44
