26

C      15.74       9.50      12.23
C      17.14       9.34      12.18
C      17.76       8.69      11.11
C      14.92       9.03      11.19
C      16.94       8.31      10.03
C      15.57       8.47      10.07
C      20.14       8.14      10.16
C      12.60       8.89      10.12
C      19.77       7.59      12.23
C      12.52       8.97      12.28
H      17.40       7.79       9.18
H      14.96       8.08       9.25
H      20.12       8.53       9.14
H      12.86       8.89       9.06
N      21.22       7.48      10.62
N      11.32       8.77      10.50
N      20.99       7.15      11.93
N      11.26       8.81      11.87
H      14.36       9.95      13.55
H      17.26      10.17      13.88
C      19.16       8.26      11.16
C      13.46       9.02      11.23
O      15.30      10.16      13.36
O      17.89       9.81      13.22
F      19.22       7.28      13.42
F      12.76       9.04      13.62
