16

C      10.07       9.48      14.16
C      12.36       9.54      13.05
C      13.43       6.59      11.24
C      11.17       8.92      13.36
C      14.62       7.21      10.93
C      12.60       7.43      12.01
C      13.18       8.70      12.28
S      14.75       8.83      11.56
S      11.03       7.31      12.72
C      15.73       6.67      10.14
O      16.73       7.45       9.95
O      15.60       5.47       9.71
H      12.60      10.55      13.38
H      13.20       5.57      10.92
O      10.26      10.64      14.66
O       9.03       8.74      14.30
