30

C      20.39       2.46       1.56
C      20.63       3.67       2.45
C      19.43       5.42       3.60
C      18.36       5.69       4.48
C      18.43       6.76       5.36
C      19.54       7.61       5.34
C      20.60       7.35       4.46
C      20.59       6.23       3.62
C      21.80       5.92       2.75
C      22.07       7.02       1.74
C      21.78       6.64       0.50
C      21.26       5.23       0.43
C      21.62       4.67       1.83
C      19.60       8.79       6.25
N      19.36       4.34       2.72
O      20.84       1.35       2.01
O      19.77       2.62       0.46
O      20.11       9.86       5.78
O      19.14       8.63       7.43
H      21.08       3.29       3.39
H      18.59       3.71       2.92
H      17.49       5.04       4.47
H      17.62       6.95       6.07
H      21.46       8.01       4.47
H      22.66       5.78       3.42
H      22.41       8.01       2.05
H      21.85       7.29      -0.38
H      21.70       4.64      -0.38
H      20.17       5.23       0.27
H      22.60       4.17       1.76
