46

C       5.45      11.06       4.97
C       5.22       8.64       5.53
C       6.03       7.50       7.54
C       6.36      12.26       5.26
C       6.98       6.91       5.40
C       6.69       6.47       3.97
H       4.49      11.18       5.49
H       5.24      10.99       3.89
H       4.35       8.92       6.13
H       4.88       8.39       4.51
H       6.22       6.46       7.88
H       5.13       7.86       8.05
H       5.90      13.19       4.88
H       7.32      12.13       4.75
H       7.30       6.02       5.96
H       7.85       7.60       5.37
H       5.80       5.82       3.95
H       6.51       7.34       3.32
H       8.62       6.16       3.74
C       8.34       9.64       9.69
C       8.56      12.06       9.13
C       7.75      13.20       7.12
C       7.43       8.44       9.40
C       6.80      13.79       9.26
C       7.09      14.23      10.69
N       6.10       9.84       5.47
N       5.84       7.48       6.11
N       6.62      12.32       6.70
H       9.29       9.52       9.17
H       8.54       9.71      10.77
H       9.43      11.78       8.53
H       8.90      12.31      10.15
H       7.56      14.24       6.78
H       8.65      12.84       6.61
H       7.88       7.51       9.78
H       6.46       8.58       9.91
H       6.48      14.68       8.70
H       5.93      13.10       9.29
H       7.98      14.88      10.71
N       7.68      10.86       9.19
N       7.94      13.22       8.55
N       7.16       8.38       7.96
H       7.27      13.36      11.34
H       5.16      14.54      10.92
O       7.79       5.70       3.48
O       5.99      15.00      11.18
