74

H       7.23      10.66       8.19
H       7.11      14.05      11.59
H       7.12      14.05       4.78
H       9.12       9.73      12.67
H       9.19      11.05      10.54
H       5.04      12.08      11.08
H       4.97      10.71      13.17
H       9.28       9.76       3.76
H       9.26      11.11       5.87
H       5.08      11.97       5.28
H       5.09      10.56       3.22
H       6.98      19.88       8.19
H       7.09      16.50      11.59
H       7.09      16.50       4.78
H       5.09      20.81      12.67
H       5.02      19.49      10.54
H       9.17      18.46      11.08
H       9.24      19.83      13.17
H       4.93      20.78       3.76
H       4.95      19.44       5.87
H       9.12      18.58       5.28
H       9.12      19.99       3.22
C       7.03       9.32      14.29
C       7.18       9.26       2.11
C       7.05      10.15      13.04
C       7.18      10.09       3.36
C       8.23      10.25      12.30
C       8.36      10.25       4.10
C       8.26      10.98      11.12
C       8.35      11.00       5.28
C       7.12      11.65      10.67
C       7.17      11.63       5.71
C       5.93      11.56      11.43
C       6.00      11.48       4.95
C       5.89      10.80      12.59
C       6.00      10.70       3.80
C       7.15      12.43       9.41
C       7.17      12.43       6.97
C       7.11      13.85       9.43
C       7.12      13.84       6.95
C       7.11      14.59      10.65
C       7.11      14.59       5.73
C       7.20      11.75       8.19
C       7.11      14.56       8.19
C       7.18      21.22      14.29
C       7.02      21.28       2.11
C       7.16      20.40      13.04
C       7.02      20.46       3.36
C       5.97      20.30      12.30
C       5.85      20.30       4.10
C       5.94      19.57      11.12
C       5.86      19.55       5.28
C       7.09      18.89      10.67
C       7.03      18.91       5.71
C       8.27      18.99      11.43
C       8.21      19.07       4.95
C       8.31      19.74      12.59
C       8.21      19.85       3.80
C       7.06      18.11       9.41
C       7.04      18.12       6.97
C       7.10      16.70       9.43
C       7.09      16.70       6.95
C       7.10      15.96      10.65
C       7.10      15.96       5.73
C       7.01      18.79       8.19
C       7.10      15.99       8.19
O       5.90       9.13      14.85
O       8.32       9.02       1.58
O       8.15       8.87      14.69
O       6.05       8.88       1.68
O       8.31      21.42      14.85
O       5.89      21.53       1.58
O       6.06      21.67      14.69
O       8.16      21.67       1.68
