36

H       6.39      13.35      15.19
H      10.46      13.46      13.80
O       7.40      11.14      14.88
O       9.59      11.18      14.28
H       6.28      22.84      13.52
H      10.37      22.70      14.89
O       9.50      24.98      14.51
O       7.29      25.07      13.98
C       8.48      11.74      14.56
C       8.37      24.45      14.23
O      10.47      17.11      12.85
O      11.75      15.50      13.63
O       6.05      17.05      15.78
O       4.92      15.29      15.09
O      10.41      19.07      15.75
O      11.68      20.64      14.85
O       5.97      19.11      12.87
O       4.85      20.94      13.36
C       8.43      13.23      14.51
C       7.26      13.91      14.86
C       7.22      15.29      14.81
C       8.30      16.08      14.35
C       9.46      15.34      13.97
C       9.54      13.96      14.08
C       8.24      17.48      14.28
C       8.19      18.69      14.23
C       8.23      20.10      14.22
C       7.13      20.90      13.80
C       7.16      22.28      13.82
C       8.33      22.95      14.21
C       9.44      22.20      14.59
C       9.38      20.82      14.62
N      10.65      16.05      13.45
N       5.96      15.93      15.26
N      10.58      20.11      15.11
N       5.89      20.26      13.31
