20

C      23.75      -0.37      27.24
C      21.41       0.66      28.29
C      22.75       0.12      26.40
C      22.44       0.18      29.14
C      24.66      -0.76      26.09
C      23.53      -0.20      25.14
H      25.62      -0.23      26.05
H      24.85      -1.83      26.01
H      23.06      -0.94      24.48
H      23.81       0.67      24.53
Cl      19.96       1.22      29.03
Cl      22.15       0.18      30.84
C      20.56       1.18      25.88
C      24.80      -0.87      29.43
O      19.60       1.90      26.30
O      20.80       0.85      24.67
O      24.99      -0.42      30.60
O      25.53      -1.73      28.82
C      23.65      -0.35      28.62
C      21.56       0.66      26.87
