22

H       2.37      13.26      14.34
H       6.45      14.55      14.76
H       1.38      11.72      16.03
H       6.63      13.35      16.94
H       1.56      10.52      18.21
H       5.64      11.82      18.64
C       4.31      14.68      13.13
C       4.39      13.97      14.43
C       3.62      11.11      18.55
C       2.30      11.76      16.61
C       2.40      11.08      17.81
C       4.71      11.82      18.07
C       4.62      12.55      16.86
C       3.39      12.52      16.12
C       3.30      13.26      14.91
C       5.61      13.99      15.17
C       5.71      13.31      16.36
C       3.70      10.40      19.85
O       5.42      15.00      12.59
O       3.16      14.91      12.64
O       4.86      10.15      20.33
O       2.59      10.11      20.40
