34

H       3.52      20.01       0.29
H       3.46      20.17      -2.17
H       0.71      23.50      -1.86
H       0.77      23.32       0.60
H       0.71      19.40      -6.39
H       3.46      22.72      -6.09
H       3.52      22.89      -8.54
H       0.77      19.58      -8.85
C       2.18      21.36     -10.34
C       2.18      21.54       2.09
C       2.14      21.64       0.60
C       2.88      20.75      -0.19
C       2.84      20.84      -1.57
C       2.06      21.83      -2.20
C       1.33      22.74      -1.40
C       1.36      22.63      -0.01
C       1.98      21.94      -3.66
C       1.98      20.96      -4.60
C       1.33      20.16      -6.86
C       2.06      21.07      -6.06
C       2.84      22.06      -6.68
C       2.88      22.15      -8.07
C       2.14      21.26      -8.85
C       1.36      20.26      -8.24
N       1.93      23.36      -4.13
N       1.93      19.54      -4.12
O       3.17      20.83     -10.93
O       1.21      21.97     -10.91
O       3.17      22.07       2.68
O       1.21      20.92       2.65
O       2.74      24.13      -3.62
O       1.07      23.67      -4.96
O       2.74      18.77      -4.64
O       1.07      19.23      -3.29
