16

C      -0.78       9.44       8.27
C      -0.72      14.03       8.46
C      -0.07      11.80       8.17
C      -1.42      11.67       8.56
S       0.70      10.29       7.88
S      -2.19      13.18       8.85
O       0.39      16.09       8.34
O       0.34       7.39       8.13
O      -1.93       7.41       8.35
C      -0.73      15.49       8.48
C      -0.79       7.97       8.25
O      -1.87      16.05       8.63
F      -3.03       9.93       8.98
F       1.54      13.55       7.75
C      -1.80      10.31       8.61
C       0.30      13.16       8.12
