54

Cl       5.23       2.45       7.80
Cl       9.63      -2.91      10.90
Cl       9.24       2.70      11.35
Cl       5.03      -2.94       8.14
H       7.32       5.84       6.39
H       6.51       4.28       6.04
H       5.79       5.81       5.49
H       4.56       5.04       7.51
H       5.41       6.53       7.85
H       9.36      -4.91      12.78
H       8.34      -6.36      12.65
H      10.10      -6.53      12.82
H       9.49      -6.98      10.48
H      10.42      -5.48      10.57
H       7.33       5.16      13.30
H       8.92       4.37      13.28
H       8.78       6.09      13.68
H       9.61       5.73      11.30
H       8.21       6.75      11.48
H       5.49      -4.84       6.16
H       6.53      -6.29       6.24
H       4.78      -6.47       6.01
H       5.33      -7.01       8.36
H       4.36      -5.55       8.30
C       6.27       4.78       8.74
C       8.37      -5.19      10.12
C       7.81       4.89      10.55
C       6.39      -5.20       8.82
C       6.28       3.37       8.81
C       8.36      -3.79      10.14
C       7.99       3.49      10.47
C       6.34      -3.80       8.87
C       7.17       2.71       9.65
C       7.33      -3.07       9.53
C       6.55       0.48      10.61
C       8.00      -0.84       8.60
C       7.99       0.56       8.65
C       6.58      -0.92      10.57
C       7.30      -1.58       9.57
C       7.25       1.23       9.64
C       5.56       5.47       7.62
C       6.35       5.33       6.31
C       9.45      -5.94      10.84
C       9.30      -5.93      12.37
C       8.54       5.72      11.57
C       8.38       5.29      13.04
C       5.35      -5.97       8.04
C       5.56      -5.88       6.52
N       6.98       5.49       9.65
N       7.39      -5.86       9.46
Cl       5.65       1.30      11.81
Cl       8.87      -1.66       7.37
Cl       8.85       1.48       7.49
Cl       5.74      -1.84      11.75
