53

N       6.21      20.50      19.39
N       6.50      19.17      19.58
H      15.48      17.77      25.40
H      15.91      21.65      27.27
N      11.88      19.92      24.67
N      12.89      19.33      25.23
N      12.17      21.26      24.64
N      11.40      20.87      21.92
N      10.58      20.40      21.03
N      10.65      21.53      22.86
N      12.37      24.37      24.38
N      13.18      25.17      23.76
H       7.36      26.20      24.41
N      12.07      23.35      23.51
N       9.93      22.06      26.03
N       8.94      22.72      26.56
N      10.28      22.72      24.89
H       8.07      18.11      20.55
H       7.16      22.31      19.97
H       6.84      24.04      28.13
H      13.82      22.49      25.26
H       8.54      21.87      23.17
H      12.67      22.78      21.53
H       9.61      24.49      23.86
C      15.81      18.65      25.94
C      15.14      19.87      26.12
C      16.03      20.65      26.89
C      14.94      26.63      21.84
C      14.32      25.40      21.59
C      14.79      25.03      20.32
C       7.06      25.82      25.38
C       7.56      24.73      26.12
C       6.79      24.72      27.29
C       7.65      19.08      20.28
C       8.12      20.36      20.59
C       7.18      21.22      20.00
C      11.29      22.20      23.99
C      13.86      20.25      25.57
C      13.40      21.50      25.20
C       9.28      20.74      21.37
C       9.32      21.46      22.55
C      13.44      24.69      22.49
C      12.74      23.51      22.33
C       8.62      23.81      25.77
C       9.48      23.81      24.69
H      14.86      27.27      22.72
H      14.58      24.15      19.72
N      17.14      19.94      27.14
N      17.01      18.70      26.55
N      15.63      25.98      19.85
N      15.72      26.97      20.80
N       5.90      25.73      27.25
N       6.07      26.41      26.07
