28

C       2.78      -3.15      18.29
C       2.76      -4.36      17.60
C       2.16      -5.51      18.14
C       2.16      -6.79      17.39
O       3.02      -0.91      20.01
O       1.14      -1.58      21.09
O       3.02     -11.39      15.52
O       1.13     -10.73      14.44
H       0.98      -4.08      21.02
H       0.98      -8.23      14.50
H       3.29     -10.02      17.64
H       3.26      -7.86      18.89
H       3.30      -2.28      17.89
H       3.26      -4.45      16.64
O       0.96      -6.52      19.95
O       0.96      -5.79      15.57
H       0.42      -6.24      20.71
H       0.41      -6.07      14.82
C       2.09      -1.76      20.26
C       2.09     -10.55      15.27
C       2.13      -3.05      19.53
C       2.13      -9.25      16.00
C       1.51      -4.18      20.07
C       1.54      -5.40      19.40
C       1.50      -8.13      15.45
C       1.54      -6.91      16.12
C       2.78      -9.15      17.24
C       2.76      -7.94      17.92
