16

H       3.65       5.25       0.49
H       7.72       5.80      -0.29
H       6.64       5.56      -1.62
C       4.04       5.28      -4.26
C       6.36       5.75       4.24
C       4.12       5.25      -2.83
C       6.20       5.65       2.81
C       5.76       5.46       0.22
C       4.46       5.32      -0.24
C       4.20       5.26      -1.61
C       6.01       5.55       1.61
N       6.83       5.48      -0.63
O       2.90       5.04      -4.79
O       5.12       5.54      -4.88
O       5.30       6.02       4.90
O       7.51       5.55       4.73
