28

O       5.72       7.99       8.01
O       6.59       5.96       8.41
C       6.65       7.13       7.93
O      17.47      11.69       1.27
C      17.41      10.52       1.75
O      18.34       9.66       1.66
C      16.14      10.12       2.47
C      15.99       8.82       3.05
C      14.81       8.46       3.72
C      13.73       9.36       3.86
C      13.88      10.65       3.29
C      15.05      11.03       2.62
C      12.54       8.99       4.54
C      11.52       8.66       5.13
C      10.33       8.29       5.81
C      10.18       7.00       6.38
C       9.01       6.62       7.06
C       7.92       7.53       7.20
C       8.07       8.83       6.63
C       9.25       9.19       5.95
Br      17.32       7.46       2.97
Br      15.04      12.80       1.93
Br      12.42      11.83       3.49
Br      14.59       6.75       4.48
Br      11.64       5.82       6.18
Br       9.47      10.90       5.19
Br       6.74      10.19       6.70
Br       9.02       4.85       7.74
