17

O      10.20      10.75      14.64
O       9.17       8.70      14.52
H      13.54      11.18      12.95
O      16.69       7.53       9.85
S      11.14       7.35      12.91
S      14.73       8.94      11.47
O      15.61       5.51       9.76
C      10.12       9.53      14.27
C      12.39       9.65      13.04
C      13.48       6.64      11.35
C      15.72       6.73      10.12
C      11.23       9.01      13.46
C      12.66       7.50      12.12
C      13.21       8.78      12.27
C      14.63       7.28      10.94
O      12.68      10.94      13.34
H      13.27       5.60      11.10
