26

C       5.22      -1.77      16.68
N       4.49      -4.05      18.10
H       3.50      -2.24      15.44
C       5.95      -2.20      17.78
O       2.26      -5.37      17.62
H       5.52      -0.88      16.13
C       5.56      -3.35      18.48
O       7.09      -1.51      18.13
H       6.13      -3.72      19.34
C       7.26      -1.19      19.48
H       5.27      -0.36      19.70
C       6.23      -0.57      20.19
O       6.93       0.52      24.18
H       9.26      -1.97      19.50
C       8.49      -1.45      20.07
O       8.97      -0.35      24.16
O       2.01      -4.38      15.60
C       7.88      -0.10      23.56
C       3.77      -3.65      17.03
H       9.63      -1.32      21.90
C       8.69      -1.10      21.40
H       5.65       0.26      22.10
C       2.60      -4.53      16.72
C       7.67      -0.48      22.14
C       6.44      -0.22      21.52
C       4.10      -2.52      16.30
