13

C      12.66      13.18       6.25
C      11.81      14.02       5.32
O       8.70      17.50       5.63
C       9.40      16.64       6.25
C      10.26      15.80       5.32
O       9.45      16.43       7.49
O      13.36      12.31       5.63
H      12.47      14.58       4.64
H      11.15      13.36       4.73
O      12.62      13.39       7.49
H       9.60      15.24       4.64
H      10.92      16.45       4.73
O      11.03      14.91       6.10
