28

O       7.73       7.22      24.64
O       7.80       9.43      24.11
O      14.72       9.27      24.01
O      14.71       7.01      23.80
C      10.59       7.43      25.32
C      10.00       6.71      26.39
H      13.85       6.50      25.95
H       8.92       6.77      26.52
H       9.91       9.70      22.84
H      12.41       9.63      22.63
C      10.75       5.94      27.27
H      12.67       3.96      28.03
H      14.06       5.04      27.72
C      12.65       8.16      24.16
H      10.49       5.55      29.38
C      12.02       7.36      25.16
H      10.22       4.14      28.35
C      11.90       9.01      23.36
C      12.76       6.55      26.06
C      12.16       5.85      27.09
C       9.85       8.27      24.43
C      10.51       9.05      23.49
C       8.35       8.31      24.41
H      12.94       5.37      29.06
C      14.14       8.14      23.97
H       9.00       5.43      28.42
C      13.00       5.01      28.02
C      10.07       5.23      28.41
