28

O      18.09      28.38      12.04
O      17.25      27.51      10.11
H       7.15      24.16      14.82
H       8.86      25.55      18.54
H      14.98      26.61      10.30
H      16.65      28.09      14.00
O       5.68      23.95      16.76
O       6.63      24.57      18.74
F      11.11      26.32      17.46
F       9.24      24.78      13.39
F      14.56      27.47      15.44
F      12.73      25.85      11.38
C      17.19      27.79      11.35
C       6.63      24.41      17.47
C       7.87      24.81      16.75
C       7.97      24.61      15.37
C       9.13      24.98      14.72
C      10.23      25.57      15.39
C      10.08      25.75      16.78
C       8.93      25.39      17.47
C      11.40      25.94      14.71
C      12.42      26.27      14.12
C      13.59      26.64      13.44
C      13.75      26.43      12.05
C      14.90      26.79      11.37
C      15.95      27.39      12.08
C      15.84      27.63      13.45
C      14.68      27.25      14.10
