30

O       6.05       9.24       3.01
O      10.90       2.64       9.84
H      10.62       9.12       3.02
H      10.63       7.43       4.82
H       6.31       7.46       4.85
H      10.64       4.41       8.00
H       6.32       2.75       9.83
H       6.31       4.45       8.02
H       6.26       9.92       2.31
H      10.69       1.95      10.54
C       8.44       1.63      11.03
C       8.51      10.25       1.81
C       8.47       9.26       2.90
C       9.68       8.76       3.42
C       9.69       7.81       4.43
C       8.47       7.33       4.95
C       7.25       7.82       4.45
C       7.25       8.79       3.44
C       8.47       6.36       5.98
C       8.48       5.52       6.87
C       8.48       4.55       7.89
C       9.69       4.05       8.40
C       9.70       3.09       9.41
C       8.47       2.61       9.95
C       7.26       3.12       9.43
C       7.25       4.06       8.42
O       7.32       1.26      11.52
O       9.59       1.19      11.46
O       7.36      10.69       1.39
O       9.62      10.62       1.33
