34

O       4.68       7.21      21.64
O       2.01      -1.62      32.27
O       2.42       7.22      21.68
O       4.26      -1.75      32.15
O       0.28       4.99      22.25
O       2.07       4.45      20.96
O       6.48      -1.24      29.87
O       4.84      -2.75      29.42
H       5.25       4.88      25.97
H       1.31       2.08      29.16
H       5.37       6.49      24.07
H       1.27       0.47      31.06
H       1.58       3.27      24.36
H       5.08       0.41      27.88
H       1.40       4.55      20.25
H       5.59      -3.37      29.53
C       3.56       6.81      22.08
C       3.13      -1.35      31.74
C       4.47       4.89      25.20
C       2.13       1.37      29.30
C       4.54       5.79      24.14
C       2.10       0.47      30.36
C       3.55       5.80      23.16
C       3.14      -0.46      30.54
C       2.49       4.87      23.24
C       4.20      -0.48      29.62
C       2.40       3.98      24.31
C       4.25       0.44      28.58
C       3.39       3.99      25.31
C       3.21       1.37      28.40
C       3.32       3.08      26.39
C       3.26       2.29      27.33
C       1.48       4.80      22.13
C       5.30      -1.50      29.69
