20

H      -1.20      12.75       2.94
H       0.51      14.55       2.93
H       0.43      14.38      -2.38
H      -0.98      12.29      -2.39
H       0.47      11.32      -1.96
C      -0.26      12.57      -0.29
C      -0.97      12.23       0.86
C      -0.67      12.98       2.02
C       0.29      14.00       2.01
C       0.95      14.38       0.82
C       0.63      13.64      -0.31
C       0.84      13.54      -1.81
C      -0.08      12.25      -1.76
C      -1.94      11.11       0.80
C       1.87      15.55       0.68
Cl       2.52      13.30      -2.38
O       2.90      15.65       1.44
O       1.54      16.36      -0.24
O      -1.72      10.26      -0.13
O      -2.93      11.06       1.62
