16

C       7.33       7.81      18.26
O       7.31       1.69      23.63
O       7.38       0.41      21.74
S       7.45       5.06      18.27
O       7.49       7.63      17.00
S       7.28       4.27      22.37
O       7.17       8.92      18.85
C       7.36       1.52      22.36
C       7.26       6.46      20.47
C       7.43       2.87      20.16
C       7.33       6.60      19.09
C       7.37       2.74      21.54
C       7.40       4.23      19.77
C       7.31       5.10      20.87
Br       7.13       7.84      21.75
Br       7.53       1.50      18.88
