18

C      24.58       9.42      14.04
C      20.75       7.04      10.38
O      24.25      10.51      14.61
O      25.66       8.76      14.22
N      22.28      11.00      12.91
H      22.96       5.90      11.44
H      20.71       9.57      11.37
H      24.61       6.96      13.02
C      23.60       8.85      13.06
C      21.74       7.67      11.31
C      22.50       9.57      12.58
C      22.84       6.93      11.77
C      21.57       8.99      11.72
C      23.75       7.52      12.64
O      20.98       5.83      10.06
O      23.02      11.82      12.35
O      21.33      11.26      13.65
O      19.78       7.76      10.00
