24

C      18.67      15.59       1.11
C      17.17      16.11      -1.11
C      17.86      16.91       0.86
C      17.98      14.79      -0.86
H      19.26      15.39       2.01
H      20.24      15.39      -0.65
H      15.59      16.30       0.65
H      16.58      16.30      -2.01
N      19.08      18.04      -1.24
N      16.76      13.65       1.24
O      19.13      13.05      -1.95
O      16.71      18.64       1.95
O      16.86      13.21      -2.17
O      18.98      18.48       2.17
H      19.72      17.77      -1.98
H      18.42      18.73      -1.60
H      16.11      13.92       1.98
H      17.42      12.96       1.60
C      18.45      16.93      -0.64
C      17.39      14.77       0.64
C      17.99      13.60      -1.73
C      17.84      18.09       1.73
C      19.21      15.60      -0.36
C      16.63      16.10       0.36
