32

H       4.89       3.75      10.00
H      10.07       5.94       9.49
H       1.21      -5.09       9.68
H       6.59      -3.38       9.76
H       5.67       6.12       9.92
H       5.58      -5.67       9.70
H       4.49      -0.65      11.66
H       7.19       1.14       7.91
C       8.61       4.66       9.70
C       2.78      -3.94       9.58
C       8.25       3.29       9.77
C       3.28      -2.61       9.57
C       6.90       2.94       9.87
C       4.66      -2.39       9.64
C       5.95       3.98       9.93
C       5.51      -3.51       9.70
C       6.37       5.29       9.88
C       4.96      -4.78       9.68
C       5.65       1.01      10.93
C       6.04      -0.52       8.64
C       5.08      -0.26      10.83
C       6.61       0.75       8.74
C       5.26      -1.04       9.68
C       6.41       1.54       9.87
Br       9.62       1.99       9.76
Br       2.05      -1.18       9.43
Br       5.39       1.97      12.55
Br       6.33      -1.51       7.05
N       7.68       5.62       9.76
N       3.63      -4.99       9.61
O       9.90       4.96       9.58
O       1.46      -4.13       9.55
