36

C      -1.37       2.22       3.14
C       1.38      -2.22      -3.14
O      -5.59       0.68       0.88
O       5.61      -0.60      -0.94
H       3.38       1.28       1.75
H       1.25       1.95       2.77
H       3.44      -1.18      -1.75
H      -3.37      -1.22      -1.79
H      -1.24      -1.95      -2.76
H      -3.42       1.26       1.70
O      -5.60      -0.63      -0.97
O       5.61       0.70       0.92
H      -1.06       1.82       4.13
H      -2.46       2.18       3.10
H      -1.07       3.27       3.11
H       1.07      -3.28      -3.10
H       2.47      -2.19      -3.09
H       1.08      -1.83      -4.13
C      -5.01       0.03      -0.05
C       5.02       0.06      -0.01
C       2.83       0.73       0.98
C       1.42       0.72       1.00
C       0.68       1.42       2.00
C       2.84      -0.66      -1.00
C       1.44      -0.71      -1.04
C       0.70      -1.44      -2.05
C      -2.82      -0.68      -1.02
C      -1.41      -0.70      -1.01
C      -0.67      -1.41      -2.01
C      -2.83       0.72       0.96
C      -1.43       0.74       1.01
C      -0.69       1.45       2.04
C       3.53       0.05      -0.01
C       0.72       0.01      -0.02
C      -3.52       0.03      -0.04
C      -0.70       0.02       0.00
