20

H      28.36       9.09      16.20
C      27.98      10.09      15.97
H      28.36      14.33      20.74
C      27.98      14.41      19.72
C      27.03      12.55      15.24
H      26.64      13.50      14.88
C      27.02      14.79      17.19
H      26.64      15.01      16.20
C      27.96      11.11      16.91
H      28.34      10.89      17.91
H      28.34      12.38      19.20
C      27.96      13.34      18.84
H      26.71      11.56      13.33
C      27.06      11.48      14.36
C      27.06      15.82      18.12
H      26.71      16.83      17.90
N      27.54      10.27      14.71
N      27.53      15.63      19.37
C      27.49      12.39      16.56
C      27.49      13.51      17.53
