27

C       8.27       0.93       2.12
H       9.25      -1.61       0.28
O       9.59      -6.07       2.24
C       7.06       0.25       2.32
C       5.88       0.97       2.36
C       9.53      -1.07       2.35
C       9.73      -1.49       3.66
C       9.79      -2.85       3.93
C       9.66      -3.79       2.89
C       9.46      -3.34       1.58
C       7.09       3.03       1.99
O       9.49       0.30       2.08
C       9.40      -1.98       1.30
H       7.09       4.11       1.87
C       9.75      -5.25       3.20
H       9.23       2.83       1.78
H       7.06      -0.83       2.46
H       9.36      -4.07       0.77
H       4.93       0.46       2.51
C       4.58       3.10       2.23
O       4.60       4.40       2.22
C       8.28       2.32       1.94
H       9.83      -0.74       4.45
C       5.87       2.37       2.20
O       3.49       2.47       2.23
H       9.96      -3.21       4.94
O       9.99      -5.56       4.42
