85

H       0.90       6.40       3.92
H       4.31      -2.14      12.34
H      -4.53       2.35      12.08
H       4.41       1.33       8.78
H       6.45       2.90       8.66
H       1.44       6.69       6.74
H      -3.42      -3.57       5.58
H      -3.95       2.78       2.63
H      -3.33       4.53      10.85
H      -2.48       1.79       1.16
C       6.43      -0.55      12.59
C      -0.43      -5.41       3.93
C       1.22      -3.21       3.80
C       1.35      -4.23       2.86
C      -1.26       3.18       3.62
C      -1.26       4.13       2.58
C       3.27      -1.23      10.68
C       4.33      -1.36      11.57
C      -3.37       1.46      10.50
C      -4.40       1.50      11.42
C       0.05       0.08       7.17
C      -6.33       0.45      12.62
C       3.26      -0.24       9.69
C       5.42      -0.49      11.50
C      -3.18       0.34       9.66
C      -5.29       0.42      11.55
C      -0.36       3.32       4.71
C      -0.51       5.31       2.72
C       0.26      -3.27       4.83
C       0.51      -5.34       2.88
C       1.23       0.04       8.05
C      -0.00       1.29       6.34
C       4.39       0.60       9.58
C      -1.16       0.09       8.01
C       0.10      -1.11       6.31
C       2.17      -0.10       8.81
C       0.15      -2.14       5.67
C      -0.19       2.26       5.63
C      -2.11       0.22       8.75
C       0.52      -6.36       1.79
C      -0.50       6.46       1.74
C       5.45       0.49      10.47
C      -4.10      -0.71       9.77
C      -5.14      -0.68      10.71
C       0.41       4.49       4.80
C       0.31       5.49       3.84
C      -0.55      -4.43       4.91
S       6.88       1.54      10.25
S       1.58       4.65       6.16
S      -1.72      -4.67       6.25
S      -2.41       1.79       3.86
S      -2.20       2.80      10.34
S      -2.04       3.85       0.96
O       6.78      -1.72      13.01
O      -6.81      -0.66      12.98
O      -6.65       1.60      13.11
O       6.83       0.55      13.05
O       1.66      -6.80       1.41
O      -1.63       6.95       1.38
O       0.64       6.90       1.42
O      -0.61      -6.70       1.33
O       6.75       2.76      11.01
O       8.05       0.71      10.31
O       6.71       1.95       8.69
O       0.91       4.44       7.41
O       2.76       3.92       5.79
O       1.97       6.22       6.06
O      -1.66      -6.04       6.64
O      -1.60      -3.60       7.19
O      -3.13      -4.50       5.47
O      -1.76       0.54       3.59
O      -3.09       2.07       5.09
O      -3.50       1.90       2.66
O      -0.95       2.38      10.89
O      -2.30       3.36       9.01
O      -2.80       3.89      11.38
O      -3.45       4.12       1.09
O      -1.23       4.52      -0.02
O      -1.79       2.31       0.68
F      -3.98      -1.79       8.97
F       2.03      -2.13       3.70
F       2.22      -2.07      10.78
F      -5.96      -1.74      10.73
F      -1.23      -6.50       3.98
F       2.27      -4.08       1.89
