28

H      -2.47      12.38       7.80
H      -2.29      14.86       7.72
H      -6.09      15.16       9.74
H      -2.00      19.28       7.82
H      -5.67      22.01       9.73
H      -5.86      19.52       9.75
C      -3.71      23.54       8.87
C      -4.42      10.87       8.74
C      -4.39      12.36       8.76
C      -3.27      13.01       8.20
C      -3.16      14.39       8.16
C      -4.18      15.19       8.71
C      -5.31      14.56       9.29
C      -5.41      13.17       9.31
C      -4.09      16.60       8.72
C      -4.02      17.82       8.76
C      -3.93      19.23       8.80
C      -2.80      19.87       8.27
C      -2.69      21.26       8.29
C      -3.73      22.05       8.83
C      -4.86      21.39       9.34
C      -4.97      20.01       9.35
Cl      -6.80      12.51      10.11
Cl      -1.29      21.95       7.56
O      -2.60      24.12       9.06
O      -3.29      10.29       8.87
O      -5.54      10.30       8.60
O      -4.83      24.12       8.71
