24

N      11.98       8.61      11.75
N      14.09      10.24      14.29
N       7.78       6.63       9.73
O      10.25       9.41      13.06
H      14.46       8.33      10.95
H      12.03      10.02      14.10
H      12.23       8.00      10.93
C       8.86       7.16       9.14
C       9.85       7.85       9.84
C       9.70       8.01      11.22
C      10.67       8.75      12.10
C      13.09       9.11      12.43
C       8.55       7.48      11.83
H      10.71       8.25       9.31
H       8.41       7.61      12.91
C       7.63       6.79      11.05
H       8.94       7.02       8.07
H       6.73       6.35      11.49
H      16.16      10.38      14.36
H      16.48       9.17      12.19
C      15.31      10.00      13.79
C      15.48       9.33      12.58
C      14.36       8.88      11.89
C      12.99       9.81      13.65
