16

C      10.26      11.93       6.03
O      10.65      13.08       6.39
O       9.26      11.27       6.51
C      14.08       9.53       2.12
O       9.15      10.13       2.44
O       8.79      11.93       3.67
N       9.50      11.00       3.26
O      13.82       9.68       0.88
H      12.19      11.21       5.37
C      11.15      11.28       5.03
C      11.85      10.37       2.81
C      10.88      10.89       3.77
H      11.54      10.35       1.77
C      13.09       9.95       3.13
H      13.44       9.90       4.16
O      15.17       9.03       2.61
