22

H       0.63       6.51       2.56
H       2.31       7.93       1.47
H       0.32       7.47      -2.31
H       2.14       8.44      -0.98
H      -3.45       4.66      -1.40
H      -3.40       4.32       1.08
C      -1.53       4.94       2.79
C      -1.62       5.81      -2.92
C      -1.53       5.31       1.35
C      -0.48       6.09       0.75
C      -2.60       4.87       0.59
C       0.57       6.69       1.49
C       1.51       7.49       0.88
C      -1.61       5.75      -1.43
C      -2.63       5.07      -0.80
C      -0.55       6.34      -0.67
C       0.41       7.21      -1.26
C       1.42       7.77      -0.50
O      -2.66       4.92       3.38
O      -2.75       6.01      -3.49
O      -0.52       5.64      -3.53
O      -0.42       4.63       3.34
