10

O       1.11       1.37       7.06
O       0.08      -3.56       7.38
O       2.31      -3.63       7.73
O       3.34       1.30       7.41
C       2.21       0.77       7.21
C       1.21      -3.02       7.58
C       1.23      -1.52       7.67
C       2.19      -0.73       7.12
Cl      -0.08      -0.88       8.57
Cl       3.50      -1.38       6.22
