42

H       5.28      10.87      27.24
H       5.18       9.34      25.31
C       2.09       3.93      15.07
C       3.19       4.02      15.90
C       3.69       5.29      16.29
C       3.05       6.40      15.71
C       1.95       6.23      14.88
C       4.75       5.42      17.29
C       5.46       4.31      17.80
C       6.35       4.43      18.86
C       6.57       5.68      19.47
N       1.46       5.01      14.57
C       5.94       6.81      18.91
H       8.06       4.94      20.71
C       5.05       6.68      17.86
N       7.42       5.75      20.56
C       7.37       6.63      21.62
N       7.35      10.95      27.32
C       8.48       6.70      22.49
C       8.47       7.53      23.59
C       7.35       8.33      23.91
C       6.23       8.23      23.06
H       1.66       2.97      14.80
C       6.23       7.41      21.94
H       3.61       3.10      16.29
C       7.35       9.21      25.08
H       3.36       7.42      15.94
C       8.54       9.67      25.67
H       1.43       7.09      14.46
C       8.51      10.52      26.76
H       5.29       3.32      17.38
C       6.19      10.51      26.77
H       6.85       3.54      19.25
C       6.15       9.67      25.68
H       6.15       7.80      19.32
H       4.54       7.58      17.52
H       9.35       6.08      22.27
H       9.35       7.56      24.23
H       5.34       8.82      23.26
H       5.34       7.35      21.32
H       9.51       9.40      25.26
H       9.42      10.93      27.21
