38

H       1.26      10.22       9.96
H      -1.06      10.19       9.65
H      -1.11       7.01       7.81
H       1.22       7.14       7.72
H      -1.18       8.77       7.67
H       1.15       8.90       7.70
H      -1.06       5.92       9.84
H       1.20       5.91       9.88
H      -1.19       9.58      11.29
H       1.14       9.29      11.46
H      -0.44       8.16      12.64
H      -0.70       6.74      13.65
H      -3.19       7.04      13.50
H      -2.39       8.44      14.24
H      -2.97       8.53      12.56
H       2.48       5.00      11.56
H       0.81       4.85      12.21
H       2.59       4.63      14.01
H       3.14       6.28      13.65
H       1.51       6.00      14.32
C      -0.73       9.38      10.31
C       0.80       9.33      10.41
C      -0.75       7.95       8.25
C       0.80       8.01       8.24
C      -1.26       8.05       9.72
C       1.33       8.06       9.69
C       0.85       6.79      10.44
C      -0.73       6.76      10.47
C       2.77       8.07       9.68
C      -2.70       8.03       9.71
C      -1.15       7.35      12.86
C      -2.50       7.87      13.31
C       1.73       5.47      12.23
C       2.27       5.61      13.63
N       3.93       8.07       9.65
N      -3.86       8.02       9.68
O      -1.31       6.48      11.71
O       1.43       6.79      11.73
