18

C       3.77      12.33      13.35
C       5.10      12.76      13.49
O       3.23      15.46      10.21
O       5.51      15.57      10.33
H       2.43      10.86      14.38
O       3.32       9.62      16.58
H       7.47      14.05      13.03
H       6.82      15.09      11.81
C       5.47      13.81      12.59
O       5.60       9.71      16.70
S       2.95      13.17      12.09
C       4.36      15.11      10.71
S       5.92      11.91      14.75
C       4.47      10.04      16.21
N       6.65      14.46      12.59
C       3.41      11.33      14.28
C       4.37      14.13      11.76
C       4.48      11.00      15.10
