20

C       6.45      11.36      23.25
C       4.22      14.24      23.28
C       5.33      10.51      23.20
C       5.33      15.09      23.34
C       4.64      12.88      23.26
C       6.03      12.72      23.29
S       3.80      11.37      23.21
S       6.86      14.23      23.38
H       8.47      11.58      23.01
H       7.88       9.95      23.12
H       2.21      14.02      22.92
H       2.79      15.65      23.13
N       7.75      10.94      23.31
N       2.91      14.66      23.28
C       5.33      16.54      23.34
C       5.35       9.07      23.14
O       6.46      17.14      23.40
O       4.18      17.12      23.26
O       4.22       8.46      23.13
O       6.50       8.49      23.09
