43

O       0.53       9.24       7.88
H       3.34       9.25      -1.04
H       3.30      10.50       1.08
H       0.80       7.44       2.82
H       0.80      11.34       1.66
H       3.34      13.77       5.16
H       3.30      11.31       5.18
H       0.80      10.39       5.62
H       3.34       6.15       5.98
H       3.30       7.36       3.83
H       0.08       6.00      -0.18
H       0.08      14.66       1.92
H       0.08       8.51       8.37
C       2.09       6.83       8.29
C       2.09       6.90      -1.60
C       2.09      15.43       3.41
C       2.76       8.87      -0.19
C       2.76       9.56       1.01
C       2.08       9.04       2.12
C       1.36       7.85       1.98
C       1.30       7.19       0.76
C       2.04       7.67      -0.33
C       1.36      11.85       2.44
C       1.30      13.25       2.47
C       2.04      13.95       3.44
C       2.76      13.23       4.41
C       2.76      11.85       4.41
C       2.08      11.14       3.40
C       1.36       9.46       5.68
C       1.30       8.73       6.87
C       2.04       7.54       6.99
C       2.76       7.06       5.89
C       2.76       7.76       4.69
C       2.08       8.98       4.58
N       2.11       9.72       3.37
O       3.09       7.06       9.06
O       1.13       6.03       8.57
O       1.13       7.06      -2.43
O       3.09       6.12      -1.79
O       1.13      16.08       3.96
O       3.09      15.99       2.83
O       0.53       6.06       0.69
O       0.53      13.87       1.53
