16

O      12.04      16.47      12.24
C       8.03      19.33      13.06
O       7.15      21.40      12.32
C       9.16      19.48      12.26
C       6.96      20.38      13.07
O      10.85      15.27      13.77
C       8.86      17.20      13.84
C      10.15      18.50      12.24
H       8.76      16.30      14.45
C       7.88      18.18      13.86
C      10.00      17.35      13.03
H       6.99      18.08      14.48
H       9.26      20.38      11.65
O       5.95      20.17      13.81
C      11.05      16.28      13.01
H      11.04      18.60      11.63
