30

C       3.71      10.84      21.50
C       2.43      10.84      22.07
H       1.44      10.82      30.61
H       1.67      10.82      28.14
H       5.96      10.82      28.56
H       5.71      10.82      31.04
H       1.27      10.83      23.89
H       5.56      10.81      24.36
H       5.83      10.83      21.89
H       1.56      10.85      21.41
H       5.13      10.83      26.44
H       2.09      10.81      26.02
O       2.70      10.88      19.38
O       4.97      10.84      19.44
O       4.59      10.82      33.09
O       2.32      10.81      33.04
C       3.81      10.85      20.01
C       3.48      10.81      32.46
C       3.56      10.81      30.98
C       2.43      10.82      30.15
C       2.57      10.82      28.77
C       3.84      10.82      28.16
C       4.97      10.82      29.01
C       4.84      10.82      30.39
C       4.08      10.82      26.73
C       3.15      10.82      25.75
C       2.28      10.83      23.45
C       3.39      10.82      24.31
C       4.68      10.82      23.72
C       4.83      10.83      22.34
