12

F       8.30      14.47       6.69
O       6.88      17.88       8.04
F       7.26      16.39       4.95
C       6.71      16.94       7.22
C      10.10      15.61       5.58
F       9.32      16.05       7.84
C       7.82      16.75       6.15
O      11.23      15.92       6.04
F       8.49      17.94       5.92
C       8.90      15.71       6.57
O       5.78      16.08       7.15
O       9.77      15.20       4.44
