16

O      17.69      13.96      26.27
O      15.41      13.80      26.05
O      17.67       6.71      30.98
O      15.38       6.68      30.93
S      15.03      11.43      27.68
S      18.06       9.14      29.42
C      16.55      13.41      26.47
C      16.53       7.17      30.63
C      17.64      11.52      27.81
C      15.44       9.06      29.30
C      16.54      12.18      27.29
C      16.54       8.40      29.82
C      15.84      10.20      28.57
C      17.24      10.38      28.54
H      18.66      11.86      27.65
H      14.42       8.72      29.47
