42

C       5.61       1.47      21.55
C       4.58       1.39      20.63
H       0.68      -5.91       9.57
H       1.31      -4.37      11.41
H      -2.34      -2.20      10.60
H      -2.72      -3.74       8.70
H       1.14      -3.59      13.34
H       1.64      -2.11      15.20
N      -1.03      -4.88       9.05
H      -0.88       0.93      13.46
H      -1.39      -0.57      11.58
N       0.65       0.43      15.50
H      -0.01       1.23      15.52
H       3.13      -0.74      15.35
N       6.89       1.16      21.25
H       4.88      -0.52      17.02
C       0.07      -5.05       9.82
H       2.39       2.16      19.31
C       0.38      -4.20      10.86
H       0.60       1.89      17.67
C      -0.46      -3.12      11.19
H       6.49       0.35      18.01
C      -1.62      -2.98      10.40
H       8.22       0.56      19.78
C      -1.86      -3.85       9.34
H       5.41       1.76      22.58
C      -0.15      -2.21      12.29
H       3.58       1.68      20.96
C       0.73      -2.58      13.32
C       1.03      -1.74      14.38
C       0.46      -0.45      14.45
C      -0.43      -0.06      13.42
C      -0.72      -0.92      12.38
C       1.69       0.51      16.41
C       2.94      -0.14      16.24
C       3.95       0.02      17.18
C       3.78       0.82      18.32
C       2.55       1.49      18.47
C       1.53       1.34      17.54
C       4.85       0.96      19.32
C       6.19       0.66      19.01
C       7.17       0.78      19.99
