13

O      14.42       5.83       3.96
H      13.01       4.35       4.34
H      14.49       4.47       2.39
O      15.79       7.24       2.30
H      14.34       4.47       5.54
C      15.16       5.05       3.04
O      13.04       7.24       5.63
O      16.81       5.41       1.42
C      13.67       5.05       4.88
C      16.00       5.98       2.18
O      12.02       5.41       6.51
C      12.83       5.98       5.74
H      15.82       4.35       3.58
