40

C      15.73      13.85       5.77
C      14.75       7.06      12.11
C      14.75      12.98       5.29
H      10.15      10.27       8.92
H      15.11      10.92      12.10
C      15.83       9.06      12.91
C      15.83      14.06       7.16
H      15.11      13.52       9.11
C      14.03       9.23      11.30
H      14.67       5.97      12.10
C      14.03      12.48       7.56
H      14.67      12.82       4.21
C      13.23      10.04      10.34
H      16.59       9.53      13.54
C      13.23      11.65       8.48
H      16.59      14.75       7.53
C      13.89       7.83      11.34
H      13.13       7.35      10.72
C      13.89      12.32       6.17
H      13.13      11.65       5.77
C      13.89      10.95       9.51
H      14.97      11.06       9.60
C      11.01       8.94      11.02
C      11.01      12.17       7.31
O      10.48       7.93      10.46
C      11.86       9.82      10.14
C      11.86      11.41       8.29
O      10.48      11.47       6.38
C      11.20      10.48       9.10
O      10.83       9.32      12.22
O      10.83      13.40       7.51
C      15.00       9.84      12.11
C      15.01      13.37       8.04
O      17.39       7.46      14.57
O      17.39      15.48       5.34
C      16.68       6.83      13.71
C      16.68      14.53       4.84
O      16.75       5.58      13.47
O      16.75      14.12       3.64
C      15.73       7.66      12.91
