19

H       1.46       8.49      19.78
H      -0.66       8.13      18.50
C       3.94       9.56      15.12
C       3.23       9.28      16.41
C       1.95       8.70      16.41
C       3.85       9.58      17.62
C       1.29       8.41      17.62
C      -0.10       7.82      17.62
H      -0.06       6.72      17.62
H       1.46       8.49      15.45
H      -0.66       8.13      16.73
O       3.47       9.10      21.19
O       5.03      10.25      20.00
H       4.83      10.05      17.62
C       3.94       9.56      20.11
C       3.23       9.28      18.82
C       1.95       8.70      18.82
O       3.47       9.10      14.04
O       5.03      10.25      15.23
