14

C      14.35       9.60       7.55
C      15.27       9.77       8.53
F      14.88      10.00       9.81
H      17.01       9.46       7.30
H      14.73       9.51       6.53
H      17.38      10.51      10.18
O      12.28      10.26       6.75
C      12.88       9.64       7.69
C      19.06      10.13       8.80
O      19.37       9.52       7.73
O      12.36       9.06       8.70
O      19.86      10.75       9.59
C      17.63      10.15       9.19
C      16.69       9.78       8.30
