12

N      -1.60       1.25      16.30
N      -0.92      -0.82      17.23
H      -3.60       1.44      15.73
H       0.35       0.80      16.89
C      -4.62      -0.95      16.33
C      -3.19      -0.52      16.53
C      -2.85       0.77      16.15
C      -0.67       0.42      16.82
C      -2.17      -1.29      17.10
H      -2.35      -2.31      17.45
O      -4.77      -2.23      16.30
O      -5.51      -0.08      16.22
