30

N       2.11       6.96       2.14
N       2.16      11.10       5.01
N      -2.07       7.89       1.34
N      -2.17      10.13       5.85
H       4.77      10.72       4.75
H       4.72       7.43       2.19
C       4.18       9.99       4.19
C       2.80      10.02       4.23
C       2.02       9.04       3.57
C       2.77       8.08       2.85
C       4.15       8.15       2.79
C       0.62       9.03       3.61
C      -0.60       9.03       3.62
C      -2.00       9.02       3.60
C      -2.79       9.55       4.64
H      -4.69       8.00       1.72
C      -4.13       8.45       2.54
C      -2.74       8.47       2.52
C      -4.18       9.55       4.58
H      -4.78       9.98       5.38
O       1.06       6.53       2.63
O       2.68       6.54       1.13
O       1.09      11.54       4.58
O       2.77      11.48       6.02
N       4.84       9.08       3.46
O      -2.64       6.94       0.80
O      -1.10       9.63       6.22
O      -2.78      11.06       6.39
N      -4.83       8.99       3.54
O      -1.01       8.43       0.98
