42

H       5.01       1.03       6.57
H       7.48      -0.47       9.97
H       6.04      -1.07       5.93
H       8.80       1.07       8.65
H       5.49       5.43       5.48
H       4.24       4.58       4.54
H       5.94       4.04       4.42
H       7.16      -3.97      12.33
H       7.64      -4.94      10.90
H       5.98      -4.28      11.01
H       3.99      -4.16       6.60
H       4.53      -4.46       4.92
H       4.20      -2.78       5.46
H      11.07       4.25       8.02
H       9.88       4.46       6.70
H      10.54       2.82       7.07
C       6.98       5.17       7.50
C       6.67      -4.87       8.46
C       6.87       0.87       7.68
C       6.76      -0.59       7.92
C       5.87       1.56       6.98
C       7.15      -1.12       9.16
C       6.30      -1.45       6.92
C       7.98       1.58       8.15
C       5.94       2.94       6.81
C       7.09      -2.50       9.41
C       6.26      -2.82       7.16
C       8.07       2.96       7.96
C       7.03       3.68       7.34
C       6.65      -3.37       8.40
C       5.18       4.45       5.09
C       7.04      -4.09      11.24
C       4.59      -3.77       5.76
C      10.22       3.79       7.50
O       5.86       5.64       7.91
O       7.80      -5.43       8.54
O       5.54      -5.46       8.39
O       8.03       5.85       7.27
O       4.88       3.51       6.15
O       7.48      -2.85      10.67
O       5.97      -3.69       6.13
O       9.19       3.59       8.47
