16

C      -5.97      14.64       4.25
C      -8.17      13.24       5.27
O      -5.74      11.56       2.34
O      -4.62      13.54       2.09
H      -6.47      16.17       5.70
H      -7.65      11.70       3.85
H      -5.12      15.17       3.83
H      -9.04      12.72       5.68
O      -9.74      14.50       7.19
C      -8.65      15.10       6.90
O      -8.19      16.16       7.45
C      -5.49      12.78       2.64
C      -7.83      14.50       5.80
C      -6.31      13.38       3.74
C      -6.73      15.20       5.28
C      -7.41      12.68       4.26
