28

C       2.05      14.58       2.05
C       2.06      14.58      14.79
C       2.05      14.58      13.27
C       1.60      15.71      12.57
C       1.59      15.71      11.17
C       2.05      14.58      10.44
C       2.52      13.46      11.16
C       2.50      13.46      12.56
O       1.08      15.16       1.48
C       2.05      14.58       9.03
C       2.05      14.58       7.81
C       2.05      14.58       6.40
C       2.52      15.71       5.67
C       2.50      15.71       4.27
C       2.05      14.58       3.57
C       1.60      13.46       4.27
C       1.59      13.46       5.67
O       3.02      14.01       1.48
O       1.08      14.01      15.36
O       3.03      15.16      15.36
Br       1.03      17.22      13.54
Br       3.08      11.95      13.54
Br       3.17      11.97      10.21
Br       0.94      17.19      10.21
Br       3.17      17.19       6.63
Br       0.93      11.97       6.63
Br       1.02      11.95       3.30
Br       3.08      17.22       3.30
