36

N       5.25      15.58       2.58
N       3.21      14.53       1.94
N       3.96      16.48       0.80
N       7.54      19.92       1.70
N       5.08      11.57       5.59
N      -0.41      15.36      -1.43
C       4.98      16.52       1.67
C       3.08      15.48       1.01
H       5.54      18.21      -0.42
C       5.87      17.70       1.65
C       6.05      18.47       0.50
C       6.90      19.57       0.56
C       7.33      19.21       2.82
H       3.07      11.09       5.48
C       6.51      18.09       2.84
H       6.71      13.94       3.82
H       7.07      12.16       5.55
C       4.59      13.53       3.66
H       6.34      17.53       3.76
C       3.56      12.72       4.13
C       3.84      11.75       5.09
H      -0.81      13.49      -0.64
C       6.08      12.35       5.13
H       1.25      13.49       0.84
H       0.09      17.24      -2.13
H       2.17      17.41      -0.69
C       5.88      13.33       4.18
C       1.86      15.45       0.18
C       1.53      16.53      -0.66
C       1.01      14.34       0.20
C       0.39      16.44      -1.45
C      -0.11      14.33      -0.61
C       4.34      14.59       2.66
H       7.10      20.20      -0.30
H       7.85      19.55       3.71
H       2.55      12.85       3.75
