27

H       5.54       7.28      13.27
H       5.46       4.17      10.27
H       6.94       5.83      17.25
H       7.32       1.53      16.87
H       3.79       0.45      15.98
H       3.64       0.52      11.65
C       5.53       6.69      12.36
C       5.47       5.30      12.21
C       5.46       5.10      10.82
C       7.18       4.78      17.35
C       6.79       3.69      16.55
C       7.36       2.57      17.17
C       3.62       0.25      14.93
C       4.07       0.98      13.81
C       3.53       0.30      12.70
C       4.85       2.20      13.93
C       6.01       3.58      15.32
C       5.44       4.28      13.25
N       5.52       6.29      10.19
N       5.53       7.29      11.15
N       8.06       2.96      18.25
N       7.93       4.33      18.38
N       2.81      -0.76      13.13
N       2.86      -0.77      14.52
N       5.44       2.38      15.13
N       5.96       4.61      14.45
N       4.90       3.09      12.92
