22

C       2.97       3.03      16.50
H       1.78      -0.07      11.99
C       1.25       1.88      14.23
H       1.14       3.99      16.93
H       0.05       3.50      14.85
N       0.78       1.25      10.67
N       4.73       5.25      18.84
H       3.48       2.36      15.81
H       5.86       2.77      17.10
H       2.04       1.18      14.51
N       0.06       2.41      10.82
N       5.76       4.44      18.39
H       2.65       5.31      18.50
H      -0.45       3.63      12.45
C       1.22       0.86      11.88
C       3.58       4.80      18.29
C       0.05       2.73      12.12
C       3.83       3.69      17.45
C       5.22       3.52      17.57
C       0.80       1.79      12.86
C       1.65       3.29      16.27
C       0.91       2.87      15.10
