27

O       6.08      14.15      13.65
C       7.32      14.12      13.94
C       7.74      13.40      15.19
O       8.26      14.65      13.26
C       6.81      12.64      15.93
O      10.26       8.22      22.44
O       8.07       7.73      22.14
C       9.07      13.49      15.62
H       5.78      12.58      15.61
C       7.28      11.99      17.06
H       9.76      14.11      15.03
C       9.52      12.83      16.75
O       5.86       9.76      17.45
C       8.62      12.05      17.48
H      10.56      12.93      17.07
C       8.90      11.23      18.67
O       5.38      11.70      18.93
H      11.03      11.53      18.99
C       7.77      10.55      19.13
H       6.92       9.11      20.52
C      10.12      11.02      19.32
H      11.13       9.94      20.90
C       7.80       9.65      20.19
C      10.18      10.12      20.38
C       9.04       9.42      20.81
C       9.13       8.38      21.88
S       6.34      10.94      18.15
