26

H      10.95      10.06      15.68
H      12.10       3.32      19.92
H      11.34       7.65      15.65
H      11.71       5.73      19.95
H      11.38       7.62      19.97
H      11.68       5.76      15.63
H      10.98      10.04      19.97
H      12.07       3.33      15.63
C      10.95      10.22      17.83
C      12.10       3.16      17.77
C      11.07       9.52      16.62
C      11.99       3.85      18.98
C      11.29       8.15      16.61
C      11.77       5.22      18.99
C      11.41       7.42      17.81
C      11.64       5.96      17.79
C      11.30       8.13      19.02
C      11.76       5.24      16.58
C      11.08       9.50      19.03
O      10.52      12.25      16.70
O      10.60      12.26      18.97
C      10.67      11.69      17.83
C      11.98       3.87      16.57
C      12.38       1.69      17.77
O      12.53       1.13      18.90
O      12.46       1.11      16.63
