26

H       1.72       3.63      28.76
H      -1.72       7.92      28.76
N       0.42       2.91      26.63
H      -1.72       3.63      23.41
N      -0.42       8.65      26.63
H       1.72       7.92      23.41
N      -0.42       2.91      25.54
N       0.42       8.65      25.54
H       1.15       5.32      28.74
H      -1.15       6.23      28.74
H      -1.15       5.32      23.44
H       1.15       6.23      23.44
H       2.56       4.86      27.78
H      -2.56       6.69      27.78
H      -2.56       4.86      24.39
H       2.56       6.69      24.39
C       0.68       4.18      26.97
C      -0.68       7.37      26.97
C      -0.68       4.18      25.20
C       0.68       7.37      25.20
C       0.00       5.04      26.09
C       0.00       6.51      26.09
C       1.57       4.51      28.12
C      -1.57       7.04      28.12
C      -1.57       4.51      24.05
C       1.57       7.04      24.05
