28

N       6.43       8.18       0.27
N       7.57       8.22      -0.29
H       5.50       8.50      -4.43
H       8.47       7.61       4.41
H       5.40       8.63      -1.92
O       8.74       7.64      -6.51
H       8.61       7.90       1.91
O       6.54       8.19      -6.60
H       9.64       7.96      -1.75
H       9.72       7.80      -4.27
O       5.13       7.24       6.46
O       7.35       7.67       6.57
H       4.19       7.82       4.21
H       4.33       8.15       1.71
C       6.26       7.51       5.93
C       7.64       7.97      -5.98
C       6.32       7.69       4.45
C       7.61       8.12      -4.49
C       7.57       7.72       3.80
C       6.40       8.38      -3.83
C       7.65       7.89       2.43
C       6.34       8.45      -2.45
C       6.47       8.05       1.68
C       7.52       8.27      -1.70
C       5.22       8.02       2.32
C       8.75       8.08      -2.35
C       5.15       7.84       3.70
C       8.79       7.99      -3.74
