16

O       5.11       1.51      16.13
C       5.00       5.09      18.39
O       7.18       5.66      17.69
H       2.03       2.57      18.40
C       5.06       3.91      17.64
C       6.16       6.04      18.41
O       6.13       7.08      19.11
H       1.87       4.69      19.70
C       4.11       1.73      16.86
H       3.80       6.30      19.70
C       4.00       3.00      17.65
H       5.96       3.69      17.06
C       2.85       3.28      18.40
C       3.84       5.37      19.13
C       2.77       4.47      19.13
O       3.11       0.92      16.98
