14

H      -1.44       7.44       7.82
C      -5.59       6.90       7.77
O      -5.98       5.70       7.63
O       0.95       6.92       7.57
O      -6.37       7.92       7.85
O       1.36       4.69       7.79
C       0.58       5.70       7.69
C      -4.14       7.16       7.82
C      -0.87       5.42       7.72
C      -3.22       6.17       7.79
C      -1.80       6.40       7.78
H      -3.58       5.14       7.73
H      -1.16       4.37       7.71
H      -3.83       8.21       7.88
