36

H       2.64       9.62      11.57
H       2.61      12.12      11.36
H       7.62      12.20      13.17
H       7.94       9.80      11.29
C       7.78      12.88      10.03
C       7.35      11.82       9.01
C       6.53      12.45       7.89
C       7.96       9.43      13.42
C       7.30       9.80      14.74
H       8.60      13.48       9.61
H       6.94      13.55      10.25
H       8.24      11.31       8.60
H       6.75      11.05       9.52
H       5.61      12.91       8.29
H       6.23      11.71       7.14
H       7.08      13.25       7.37
H       7.44      10.86      15.00
H       6.21       9.61      14.71
H       7.71       9.21      15.57
H       7.83       8.35      13.24
H       9.05       9.61      13.48
O       5.93       7.51      11.59
O       3.71       7.41      12.11
O       5.71      14.44      12.02
O       3.57      14.38      11.25
O       8.32      12.39      11.27
C       4.80       8.03      11.87
C       4.66      13.84      11.63
C       5.93      10.27      11.98
C       4.77       9.51      11.88
C       3.56      10.20      11.67
C       3.55      11.59      11.55
C       4.72      12.36      11.68
C       5.91      11.66      11.90
C       7.42      11.76      12.18
C       7.43      10.17      12.19
