28

C       2.24       5.42      10.89
C       2.69      10.75      11.87
H       2.44       4.45       8.87
H       1.78      11.12       9.85
H       1.31       5.38      12.93
H       3.38      11.60      13.84
C       3.80       7.12      11.84
C       4.00       8.57      11.96
C       2.94       6.69      10.88
C       2.86       9.30      11.89
H       2.64       7.41      10.12
H       1.93       8.74      11.77
C       4.49       6.20      12.82
C       5.37       9.13      12.17
N       1.27       3.47      10.33
N       2.06      12.79      11.13
N       0.90       3.75      11.62
H       5.59       6.34      12.74
H       4.23       6.43      13.86
H       4.27       5.15      12.61
H       5.39      10.22      12.04
H       5.75       8.93      13.19
H       6.09       8.67      11.48
N       2.57      12.94      12.40
C       2.05       4.47       9.88
C       2.11      11.48      10.82
C       1.48       4.93      11.96
C       2.95      11.72      12.85
