16

C      27.69      10.64      17.58
O      28.84      10.19      17.24
O      26.55      10.13      17.30
C      27.78      16.98      21.58
H      25.58      12.29      18.63
S      29.23      12.58      18.80
S      26.23      15.03      20.36
H      29.88      15.31      20.54
O      26.63      17.49      21.83
O      28.92      17.44      21.92
C      26.61      12.60      18.82
C      28.85      15.01      20.35
C      27.70      11.88      18.36
C      27.76      15.73      20.80
C      28.43      13.87      19.62
C      27.03      13.74      19.54
