36

H      12.76       2.21      21.49
H      11.44       3.90      19.46
H      12.02       3.79      21.71
C      11.58       2.85      19.77
H       8.58       2.59      22.38
C      10.26       0.69      20.03
C      10.49       0.70      21.55
C      11.40       1.88      24.64
C      10.22       2.14      19.50
C      11.85       2.79      21.29
C      10.68       2.14      22.09
H       9.31       0.20      19.77
H      11.05       0.12      19.53
C      12.80       2.30      19.01
C      12.83       2.47      17.49
H      11.35       0.08      21.83
H       9.08       3.94      19.86
Br       8.99      -0.20      22.50
H       8.16       2.45      20.09
H       9.61       4.01      22.14
O       8.09       1.89      15.12
O      11.66       0.28      26.28
O       9.06       3.94      15.33
H      12.11       1.82      16.99
H      12.58       3.51      17.20
H      13.83       2.24      17.10
H      13.68       2.81      19.45
H      12.94       1.24      19.28
C       8.82       2.77      15.72
C       9.42       2.98      21.80
O      12.75       2.27      26.50
C       9.13       2.93      20.29
C      11.03       2.07      23.50
C       9.81       2.22      18.11
C       9.37       2.39      16.99
C      11.95       1.45      25.89
