32

O       4.21      12.90      20.44
O       2.56       3.47      30.50
O       6.34      12.47      23.29
O       0.57       6.62      30.03
H       1.36       8.85      23.19
H       5.38       5.95      26.29
H       1.24      10.59      21.41
H       5.50       4.30      28.16
H       5.09      10.56      24.56
H       1.75       7.56      27.99
H       4.80      13.62      22.63
H       1.98       5.67      31.14
C       3.07      12.47      20.83
C       3.70       3.86      30.08
C       2.15       9.59      23.09
C       4.61       5.93      27.06
C       2.08      10.56      22.10
C       4.68       5.01      28.10
C       3.10      11.52      21.97
C       3.68       4.97      29.08
C       4.18      11.52      22.88
C       2.63       5.91      29.04
C       4.26      10.54      23.86
C       2.56       6.83      28.00
C       3.25       9.56      23.98
C       3.53       6.84      26.98
C       3.34       8.58      25.01
C       3.44       7.77      25.91
C       5.19      12.62      22.91
C       1.65       6.06      30.16
O       1.94      12.79      20.33
O       4.83       3.36      30.38
