17

O      14.23      18.35      26.13
O      13.21      16.30      26.01
C       7.68      20.32      30.52
H      10.14      21.44      29.55
C      11.01      17.40      27.61
C       9.93      20.41      29.29
C      12.17      18.04      27.18
C       8.77      19.77      29.71
C      10.74      19.55      28.53
C      10.19      18.26      28.37
H       9.86      15.87      27.70
O       6.72      19.51      30.79
O       7.79      21.54      30.88
O      10.72      16.10      27.30
C      13.28      17.52      26.38
S      12.26      19.70      27.73
S       8.67      18.11      29.17
