18

S      11.23       7.36      12.93
S      14.83       8.92      11.52
C      10.14       9.52      14.22
C      12.51       9.61      13.10
C      13.56       6.62      11.38
C      15.81       6.70      10.17
O      16.81       7.47       9.98
C      11.32       9.00      13.50
O      15.65       5.51       9.73
C      14.72       7.26      10.99
C      12.75       7.49      12.14
C      13.31       8.77      12.30
O      13.76      11.47      12.66
O      12.67      11.41      14.57
N      12.99      10.94      13.48
H      13.34       5.58      11.12
O      10.00      10.78      14.29
O       9.35       8.63      14.68
