18

O      18.58       5.83       8.78
O      14.44       4.12       4.69
C      18.32       8.26       6.90
O      14.92       0.92       7.58
O      17.99       9.08       5.97
C      17.75       5.86       7.70
C      15.27       4.08       5.76
H      18.48       4.96       9.21
H      14.55       4.97       4.24
C      17.64       6.96       6.85
C      15.37       2.99       6.62
C      16.15       5.13       6.15
C      16.89       4.81       7.30
S      16.49       6.71       5.56
S      16.53       3.23       7.90
O      13.74       1.54       5.72
O      19.15       8.47       7.84
C      14.62       1.73       6.63
