48

H       3.88       4.72       6.54
H       3.77      10.10      11.36
H       1.49       4.23       6.36
H       6.17      10.59      11.52
H       5.71       6.06       7.43
H       1.92       8.79      10.47
H       6.55       7.99       5.31
H      -0.64       7.90      11.94
H       9.50      11.50       9.42
H       9.94      11.89      11.12
H       8.30      12.31      10.50
H      -2.20       2.84       6.82
H      -1.82       3.41       8.48
H      -0.56       2.57       7.50
C       4.70       6.29       7.74
C       2.93       8.58      10.12
C       3.68       5.52       7.26
C       3.95       9.34      10.60
C      -1.75       6.44       8.82
C       9.34       8.56       8.80
C      -0.31       6.07       8.59
C       7.90       8.89       9.12
C       1.29       4.95       7.15
C       6.35       9.91      10.68
C      -0.02       5.16       7.54
C       7.65       9.72      10.24
C       0.75       6.69       9.28
C       6.83       8.26       8.47
C       2.08       6.63       8.76
C       5.52       8.28       9.04
C       2.34       5.71       7.71
C       5.28       9.18      10.12
C       3.15       7.52       9.19
C       4.46       7.38       8.63
C       7.11       7.73       7.09
C       0.51       7.04      10.72
C       9.13      11.58      10.45
C      -1.42       3.26       7.46
O      -2.60       5.53       9.07
O      10.14       9.48       8.44
O      -2.01       7.67       8.63
O       9.63       7.35       9.02
O       7.94       6.90       6.76
O       6.32       8.37       6.18
O       1.11       6.47      11.62
O      -0.48       7.94      10.97
O       8.69      10.29      10.94
O      -1.04       4.51       6.87
