69

Si      25.97      26.10      13.13
H      23.70      21.12      17.66
H      20.99      24.48      18.02
H      24.64      30.83       7.95
H      20.91      28.78       8.77
H      27.98      21.10       8.36
H      30.94      24.25       8.45
H      27.90      31.07      17.83
H      31.00      28.04      17.89
H      22.50      25.70      16.68
H      24.28      21.97      15.47
H      25.61      23.15      13.77
H      23.79      26.88      14.96
H      26.54      22.69       9.53
H      30.18      24.65      10.77
H      28.93      25.88      12.50
H      25.30      23.90      11.27
H      27.45      30.28      15.53
H      29.35      26.62      16.77
H      28.12      25.39      15.03
H      26.19      29.05      13.81
H      21.89      27.86      10.70
H      25.70      29.48       9.48
H      26.82      28.16      11.21
H      23.02      26.52      12.43
C      22.93      21.84      17.92
C      22.62      23.07      17.33
C      21.56      23.56      18.11
C      23.63      30.44       7.98
C      23.06      29.50       8.86
C      21.73      29.39       8.41
C      28.81      21.78       8.20
C      29.17      22.94       8.91
C      30.33      23.38       8.26
C      28.77      30.44      18.01
C      29.17      29.26      17.37
C      30.34      28.89      18.05
C      23.16      25.13      16.03
C      23.30      23.74      16.22
C      24.17      23.05      15.37
C      24.92      23.72      14.40
C      24.81      25.11      14.23
C      23.90      25.80      15.06
C      27.08      23.37      10.20
C      28.45      23.59      10.01
C      29.10      24.48      10.87
C      28.39      25.18      11.86
C      27.01      24.99      12.02
C      26.37      24.06      11.18
C      27.59      29.21      15.43
C      28.49      28.55      16.29
C      28.68      27.16      16.10
C      27.97      26.47      15.12
C      27.05      27.12      14.28
C      26.89      28.50      14.45
C      22.98      27.93      10.81
C      23.71      28.77       9.94
C      25.10      28.84      10.13
C      25.73      28.09      11.12
C      25.01      27.23      11.97
C      23.62      27.18      11.79
N      21.27      22.68      19.09
N      22.12      21.61      18.98
N      21.54      30.20       7.34
N      22.72      30.85       7.08
N      30.64      22.54       7.24
N      29.69      21.55       7.21
N      30.62      29.79      19.02
N      29.64      30.75      18.99
