30

C       8.97      -3.91       7.45
C       8.54      -3.22       8.62
C       8.30      -4.03       9.76
C       8.40      -5.41       9.72
C       8.73      -6.07       8.51
H       6.33       1.18      10.45
C       9.04      -5.29       7.39
H       7.70     -10.30       5.90
C       8.21      -1.86       8.63
C       8.64      -7.48       8.41
C       8.38      -8.67       8.29
C       7.72      -0.73       8.62
H       7.47     -10.75      10.21
H       9.32      -5.75       6.44
H       7.97      -3.53      10.68
H       8.18      -6.00      10.61
I       7.67       0.68       5.38
N       6.05       2.23       7.40
C       6.83       1.15       7.21
N       5.80       2.33       8.75
C       6.40       1.30       9.37
N       6.89     -11.77       7.20
C       7.08       0.49       8.44
C       7.53     -10.62       6.92
N       6.81     -11.91       8.56
N       9.32      -3.16       6.23
C       7.41     -10.85       9.13
C       7.88      -9.97       8.13
O       9.12      -3.71       5.14
O       9.80      -2.02       6.38
