20

N       4.86      12.42       1.20
N       6.21      14.13       1.21
N       5.16      14.50       2.00
C       4.37      13.44       1.97
O      10.27      18.96       0.28
H       3.43      13.39       2.51
C       6.01      12.89       0.73
H       6.68      12.36       0.06
O      11.60      17.24      -0.32
C       7.29      15.01       0.94
H       5.96      16.70       0.74
C       7.00      16.36       0.71
H       7.86      18.27       0.20
C       8.05      17.22       0.43
H      10.66      15.04       0.50
C       9.37      16.75       0.36
H       8.80      13.45       1.05
C       9.63      15.39       0.57
C       8.59      14.51       0.87
C      10.48      17.72       0.09
