34

H      10.73       8.99      20.86
H       6.50       9.09      20.77
H       6.35       9.01      27.64
H      10.58       9.12      27.73
O       9.75       8.88      18.64
O       7.51       9.23      18.65
O       7.33       8.91      29.86
O       9.58       9.26      29.85
O      12.20       9.07      25.66
O      12.26       9.04      23.01
O       4.83       9.05      25.49
O       4.89       9.07      22.84
H      12.02       9.15      26.61
H      12.12       9.08      22.05
H       4.96       9.09      26.45
H       5.07       9.14      21.89
C       8.63       9.05      19.23
C       8.45       9.08      29.27
C       9.81       9.02      21.45
C       9.81       9.03      22.85
C      11.03       9.04      23.61
C       7.39       9.06      21.40
C       7.33       9.05      22.80
C       6.09       9.05      23.51
C       7.27       9.03      27.05
C       7.27       9.04      25.65
C       6.05       9.04      24.89
C       9.69       9.08      27.10
C       9.75       9.06      25.70
C      11.00       9.06      24.99
C       8.62       9.04      20.73
C       8.56       9.04      23.54
C       8.46       9.06      27.77
C       8.53       9.04      24.96
