18

O       2.40       7.50      16.36
H      -1.15       3.64      11.88
H       4.49       4.82      14.98
O       0.20       7.03      16.66
O      -0.38       3.24      11.42
O       3.73       5.22      15.44
O       3.15       1.43      10.20
S       3.28       3.05      12.79
C       2.01       1.60      10.76
S       0.07       5.41      14.07
C       1.33       6.86      16.10
C       0.76       3.37      12.12
C       2.58       5.09      14.75
C       1.91       2.64      11.79
C       1.44       5.82      15.07
C       2.33       4.20      13.66
C       1.01       4.26      13.20
O       0.95       0.96      10.50
