27

C      22.76       6.83       5.71
C      20.55       6.47       8.86
C      25.01       9.83       4.77
O      19.01       6.00      10.60
H      20.86       5.14       7.20
O      26.47       9.47       2.93
C      22.02       6.97       7.02
O      19.25       4.48       8.92
H      24.67       7.94       3.78
C      23.26       8.93       6.75
H      22.01       9.53       9.32
O      26.16      11.59       3.69
C      21.13       6.10       7.64
H      20.40       7.95      10.41
C      23.54       8.12       5.62
C      24.43       8.56       4.65
H      23.63      10.82       7.75
C      22.33       8.21       7.62
C      21.77       8.58       8.85
H      25.19      11.61       5.95
C      20.88       7.70       9.46
C      23.85      10.19       6.88
H      22.08       6.70       4.86
H      23.43       5.94       5.71
C      24.71      10.64       5.88
C      25.96      10.33       3.72
C      19.53       5.58       9.51
