20

H      11.40       8.71       8.64
H      18.31       7.51       9.60
H      11.37       5.09       6.66
H      15.80       7.60       9.68
H      13.87       4.99       6.59
H      15.79       6.08       5.63
H      13.91       8.77       8.68
H      18.30       6.08       5.73
C      12.00       7.91       8.21
C      17.70       7.22       8.75
C      11.98       5.88       7.08
C      16.31       7.27       8.78
C      13.37       5.84       7.04
C      15.58       6.85       7.65
C      14.10       6.88       7.64
C      16.30       6.40       6.54
C      13.39       7.93       8.23
C      17.69       6.40       6.58
N      18.37       6.80       7.67
N      11.31       6.90       7.65
