16

F      11.34      13.32      23.03
C      13.74      14.82      22.19
O      13.55      14.69      23.44
O       8.92      11.79      19.08
O      14.70      15.44      21.62
O      10.08      12.53      17.27
H      13.79      14.85      19.51
H       9.83      12.38      21.19
C      10.89      13.04      19.43
C      12.73      14.19      21.27
C      12.03      13.74      18.99
C       9.89      12.41      18.52
C      12.92      14.31      19.89
C      10.70      12.92      20.82
F      12.29      13.90      17.67
C      11.60      13.48      21.71
