53

C      16.04       0.34      19.81
C      18.95      -0.34      19.81
C      17.20      -1.46      17.52
C      17.80       1.47      17.53
Si      17.50       0.00      18.67
C      14.33      -0.47      21.36
C      20.66       0.47      21.36
C      15.75      -2.68      15.98
C      19.24       2.68      15.98
C      15.83       1.64      20.31
C      19.16      -1.64      20.31
C      18.29      -2.19      17.02
C      16.70       2.20      17.03
H      13.74      -1.28      21.78
H      21.26       1.28      21.78
H      14.77      -2.88      15.56
H      20.23       2.88      15.56
O      13.11       2.27      23.44
O      21.88      -2.27      23.44
H      16.42       2.47      19.92
O      17.25       4.93      13.89
H      18.57      -2.47      19.92
C      14.90       1.88      21.32
C      20.09      -1.88      21.32
C      18.13      -3.14      16.01
H      19.29      -2.01      17.42
H      15.70       2.01      17.42
C      16.86       3.14      16.02
C      15.26      -0.71      20.35
C      19.73       0.71      20.35
C      15.92      -1.73      16.99
C      19.07       1.73      16.99
H      14.78       2.89      21.72
H      20.21      -2.89      21.72
H      18.99      -3.67      15.62
H      16.00       3.67      15.62
H      15.41      -1.73      19.99
H      19.59       1.73      19.99
H      15.05      -1.18      17.35
H      19.94       1.18      17.35
O      12.50       0.12      23.42
O      22.50      -0.12      23.42
O      15.52      -4.59      13.92
O      19.47       4.59      13.92
O      17.74      -4.92      13.89
C      13.19       1.08      22.98
C      21.80      -1.08      22.98
C      16.69      -4.36      14.36
C      18.31       4.36      14.36
C      14.15       0.83      21.86
C      20.84      -0.83      21.86
C      16.86      -3.38      15.48
C      18.13       3.39      15.48
