14

C       4.17       5.52      20.29
C       3.74       4.79      18.25
C       2.87       3.30      20.16
C       2.27       2.23      19.48
N       1.77       1.34      20.36
C       2.69       2.97      21.51
N       2.04       1.79      21.62
H       2.19       2.05      18.41
H       2.99       3.51      22.40
N       4.69       6.40      19.40
N       4.44       5.94      18.15
H       4.29       5.68      21.36
H       3.42       4.26      17.36
C       3.54       4.46      19.61
