22

H       5.80      10.34       8.82
H       6.77      15.05       9.18
H       5.86      12.75       9.54
H       8.60      10.94       5.86
N       7.18      10.60       7.30
H       9.76      12.25       4.77
N       9.92      15.93       6.03
H      11.29      16.28       4.54
H      11.23      13.93       3.66
H       8.32      16.56       7.99
C       6.47      12.40       8.71
C      10.66      15.52       5.00
C      10.62      14.20       4.51
C       9.79      13.28       5.13
C       9.00      13.68       6.23
C       9.07      15.04       6.64
C       8.11      12.79       6.94
C       7.32      13.29       8.02
C       7.40      14.67       8.37
C       8.25      15.52       7.71
C       8.00      11.42       6.64
C       6.43      11.07       8.32
