34

H       3.18      13.46      17.36
H       3.23      11.01      17.42
H       7.48      13.59      17.57
H       3.09       4.16      17.51
H       7.40       4.18      17.41
H       7.40       6.63      17.45
C       7.99      11.06      17.75
C       2.63       6.71      17.59
O       4.16      15.75      17.35
O       6.43      15.79      17.44
O       6.31       1.87      17.41
O       4.04       1.97      17.46
O       8.12       9.75      18.05
O       8.99      11.75      17.65
O       2.51       8.03      17.77
O       1.62       6.02      17.49
H       7.24       9.29      18.04
H       3.40       8.47      17.83
C       5.29      15.18      17.40
C       5.19       2.51      17.45
C       5.33      13.69      17.43
C       4.14      12.95      17.41
C       4.18      11.57      17.45
C       5.41      10.88      17.54
C       6.61      11.63      17.60
C       6.55      13.03      17.53
C       5.38       9.46      17.56
C       5.29       8.24      17.55
C       5.23       6.82      17.52
C       4.00       6.10      17.54
C       4.04       4.71      17.51
C       5.24       4.00      17.47
C       6.45       4.71      17.45
C       6.44       6.10      17.47
