16

C       6.69       3.80      18.58
S       6.68       1.51      20.09
C       6.66      -3.74      18.69
S       6.62      -1.45      17.12
C       6.63       0.09      17.89
O       6.73       4.35      19.73
O       6.68       4.41      17.45
C       6.64      -0.02      19.29
O       6.64      -4.31      17.53
O       6.70      -4.32      19.81
C       6.64      -1.37      19.71
C       6.64       1.44      17.49
C       6.64      -2.27      18.66
C       6.67       2.33      18.55
F       6.65      -1.70      21.01
F       6.62       1.80      16.19
