14

C       2.74       5.82      10.14
O       1.65       5.97       9.48
O       3.81       1.16      14.70
O       1.58       1.49      14.95
C       1.65       3.27      12.78
C       2.74       4.95      11.31
C       1.67       4.22      11.69
H       0.74       4.37      11.13
C       2.69       1.67      14.37
H       3.69       4.89      11.86
H       0.69       3.06      13.27
C       2.73       2.59      13.21
H       3.71       2.69      12.72
O       3.86       6.37       9.83
