19

C       4.99       7.46       5.93
N       8.08       8.32       4.55
C       5.06       7.82       3.74
C       8.77       7.20       4.98
H       3.17       6.70       3.40
C       6.88       8.88       5.13
H       5.25       7.52       6.98
H       5.42       8.23       2.80
H       8.43       6.61       5.83
C       9.88       7.10       4.18
H       6.73       9.87       4.69
C       8.79       8.86       3.51
H       7.02       9.02       6.22
N       3.91       6.86       5.42
H      10.68       6.38       4.21
N       9.88       8.15       3.27
H       8.49       9.77       3.00
N       5.71       8.05       4.94
C       3.95       7.07       4.05
