34

H       1.89       8.41      13.83
H       1.01       9.14      11.63
H       5.83       9.75      12.72
H       0.96       9.04       9.27
H       0.49      10.61      10.02
H       1.09      10.55       8.33
H       4.12      10.46       7.47
H       4.14      12.05       5.52
H       8.10      13.32       6.57
H       8.09      11.76       8.54
S       6.11       9.90       9.46
O       3.63       8.32      15.67
O       5.72       8.43      14.86
O       2.55      10.33       9.71
O       5.10      10.79      10.41
O       5.45       8.67       9.12
O       7.40       9.89      10.09
O       5.12      13.82       4.04
O       7.22      14.40       4.62
C       4.45       8.56      14.72
C       3.91       9.02      13.42
C       2.56       8.87      13.10
C       2.06       9.29      11.87
C       2.91       9.90      10.94
C       4.27      10.09      11.29
C       4.77       9.63      12.50
C       1.18      10.11       9.32
C       6.12      11.01       8.08
C       4.99      11.08       7.25
C       5.00      11.96       6.18
C       6.13      12.76       5.93
C       7.24      12.68       6.78
C       7.24      11.81       7.86
C       6.15      13.72       4.78
