12

O       3.47      15.10      12.21
O       5.42      15.79      11.25
O       4.35      14.57      15.02
H       6.11      13.43      11.66
H       7.09      13.37      13.85
H       6.93      15.06      13.40
O       6.37      14.47      16.02
C       4.73      15.00      11.93
C       5.46      13.77      12.48
C       6.35      14.16      13.67
C       5.64      14.42      15.00
N       4.49      12.73      12.88
