26

O      11.69       9.55      15.08
O      13.93       9.81      14.83
O      12.96      10.22      26.26
O      15.12       9.56      26.08
H      15.19       9.76      16.93
H      10.92       9.84      17.43
H      11.20       9.89      19.89
H      15.49       9.86      19.38
H      15.40       8.79      21.27
H      15.67       8.82      23.74
C      12.87       9.72      15.53
C      13.03       9.81      17.02
C      14.32       9.82      17.59
C      11.92       9.86      17.87
C      12.08       9.89      19.25
C      14.48       9.86      18.96
C      13.37       9.89      19.82
C      13.54       9.90      21.29
C      14.66       9.29      21.89
C      14.81       9.29      23.28
C      13.85       9.90      24.10
H      11.74      11.04      21.68
H      12.00      10.99      24.14
C      13.99       9.89      25.59
C      12.74      10.51      23.50
C      12.59      10.52      22.12
