16

H       7.73       9.81       5.61
H       4.15       9.71       7.69
H       8.87      12.07       5.07
H       4.08      12.21       7.93
H       8.83      14.58       5.37
H       5.24      14.48       7.43
C       8.06      12.56       5.60
C       8.04      13.93       5.75
C       6.02      13.89       6.93
C       5.95      12.48       6.85
C       7.00      11.80       6.16
C       6.94      10.39       6.10
C       4.93      10.35       7.29
C       4.90      11.72       7.41
N       5.95       9.70       6.65
N       7.03      14.58       6.41
