26

F      10.03      10.80      13.58
F      14.49      11.79      15.17
H      10.26      10.16      11.10
H      14.29      12.07      17.72
H      10.41      10.24      18.04
H      10.46       9.74      15.61
H      14.52       9.54      11.25
H      14.51      10.03      13.67
C      12.40       9.45       9.57
C      12.33      11.50      19.49
C      12.40       9.80      11.02
C      12.34      11.18      18.04
C      11.20      10.13      11.65
C      11.22      10.44      13.00
C      13.44      11.57      17.26
C      13.42      11.33      15.90
C      11.26      10.54      17.43
C      11.29      10.27      16.06
C      13.59       9.79      11.75
C      13.58      10.07      13.11
C      12.38      10.40      13.79
C      12.37      10.67      15.24
O      11.25       9.28       9.03
O      11.17      11.55      20.04
O      13.46      11.72      20.04
O      13.54       9.34       9.01
