18

C      11.80       9.18       9.39
C      11.80       9.75       8.00
C      11.80       8.90       6.89
C      11.80       9.46       5.62
H      11.80       7.82       7.03
H      11.80       8.83       4.73
H      11.80      11.78       8.71
H      11.80      13.67       7.21
N      11.80      13.07       6.40
H      11.80      13.43       5.44
C      11.80      11.14       7.83
C      11.80      11.71       6.54
O      11.80       9.98      10.38
O      11.80       7.91       9.55
O      11.80      10.51       3.04
O      11.80      12.61       3.78
C      11.80      10.84       5.41
C      11.80      11.33       4.00
