30

C      10.12       6.97       4.50
C       7.04       6.95      -3.52
H       5.98       6.83      -3.77
C      11.05       6.87       3.45
C       7.52       6.59      -2.28
C      10.63       6.58       2.16
C       8.89       6.78      -1.95
C       9.26       6.40       1.87
H       8.06       6.71       5.07
H       9.91       8.05      -4.97
H       7.67       6.11       0.45
H      10.50       6.80      -0.53
H      10.79       7.43      -2.72
H      12.11       7.03       3.68
H       7.30       6.22       2.75
H      11.37       6.53       1.36
H       6.84       6.17      -1.54
C       8.35       6.41       2.95
C       9.25       7.64      -4.21
C       8.77       6.69       4.24
C       9.43       6.58      -0.61
C       8.74       6.30       0.52
O       8.19       8.25      -6.72
O       9.68       7.55       6.76
O       6.07       7.92      -5.97
O      11.84       7.46       6.05
C       9.74       7.28      -2.95
C       7.34       7.92      -5.83
C      10.58       7.35       5.87
C       7.89       7.50      -4.50
