18

C      16.08      13.32      26.32
C      15.94       7.03      30.40
C      17.16      11.40      27.68
C      14.87       8.95      29.04
C      16.09      12.10      27.12
C      15.94       8.25      29.60
C      15.32      10.09      28.33
C      16.71      10.25      28.38
O      17.20      13.91      26.12
O      14.93      13.69      25.89
H      19.02      11.15      28.00
H      13.00       9.17      28.68
O      17.09       6.62      30.79
O      14.81       6.48      30.63
O      18.45      11.79      27.55
O      13.58       8.55      29.16
S      14.54      11.35      27.44
S      17.49       9.00      29.27
