41

C       9.62       2.59       6.79
C       8.43       3.33       6.74
H      12.72       1.24       3.86
C       7.80       3.67       7.94
H      12.02       0.29      12.10
C       8.38       3.27       9.14
C       9.56       2.51       9.09
C      10.32       2.26       5.54
C      10.75       2.08       3.47
C       9.50       2.51      -0.04
C       9.53       2.52       1.35
C      10.68       2.07       2.01
H       8.03       3.64       5.78
C      11.76       1.63       1.23
H       6.88       4.25       7.93
C      11.65       1.66      -0.15
H       7.94       3.51      10.10
H       8.62       2.85      -0.59
C      10.16       2.05      10.35
C      10.52       1.84      12.44
H       8.67       2.87       1.91
H      12.68       1.26       1.69
C       9.61       2.83      15.94
C       9.60       2.78      14.55
H      12.47       1.33      -0.79
C      10.51       1.94      13.89
H       8.91       3.46      16.49
C      11.42       1.20      14.67
H       8.88       3.36      13.97
H      12.15       0.51      14.24
C      11.38       1.33      16.05
N      10.17       2.17       7.95
H      12.07       0.79      16.69
N      11.57       1.75       5.51
N      11.81       1.65       4.19
N       9.78       2.48       4.31
N      10.54       2.09      -0.78
N      11.13       1.11      10.43
N      11.34       1.00      11.76
N       9.76       2.52      11.57
N      10.49       2.13      16.68
