20

H       3.20       3.88       3.70
H       7.25       1.55       5.28
H       2.86       2.30       6.94
H       2.09       3.24       5.71
H       7.60       3.13       2.05
H       8.36       2.18       3.28
C       5.39       1.50       7.10
C       5.07       3.95       1.89
C       5.27       2.14       5.78
C       5.19       3.29       3.21
C       4.06       2.78       5.35
C       6.39       2.64       3.64
C       4.08       3.35       4.06
C       6.37       2.08       4.92
N       2.95       2.91       6.14
N       7.51       2.51       2.84
O       4.34       1.37       7.82
O       6.55       1.08       7.46
O       3.91       4.37       1.54
O       6.12       4.08       1.18
