20

C       4.00      18.74       1.74
H       5.43      13.43       6.25
H       5.58      14.95       4.28
H       2.00      16.98       5.57
H       1.85      15.46       7.54
O       2.40      11.59      10.76
O       4.64      11.31      10.52
O       2.89      19.29       1.45
O       5.14      18.98       1.22
C       3.52      11.83      10.21
C       4.76      15.05       4.99
C       3.80      16.06       4.80
C       2.74      16.20       5.73
C       2.66      15.35       6.82
C       3.63      14.35       7.02
C       4.68      14.21       6.09
C       3.89      16.95       3.70
C       3.56      13.49       8.15
C       3.52      12.75       9.11
C       3.96      17.74       2.78
