36

H       1.81      12.42      20.55
H       2.13      10.25      16.81
H       2.13       4.31      25.23
H       1.81       2.15      21.49
C       1.97       1.78      24.20
C       1.97      12.78      17.85
C       1.97      11.49      18.59
C       1.89      11.49      19.99
C       1.96      10.28      20.67
C       1.97       9.03      20.01
C       1.98       9.09      18.60
C       2.06      10.28      17.90
C       1.97       7.81      20.72
C       1.97       6.75      21.33
C       1.97       5.54      22.03
C       1.98       5.48      23.45
C       2.06       4.28      24.15
C       1.97       3.07      23.45
C       1.89       3.08      22.06
C       1.96       4.28      21.38
N       1.90       7.85      17.79
N       2.05      10.37      22.15
N       2.05       4.20      19.90
N       1.90       6.71      24.25
O       2.90       1.60      25.05
O       1.04       0.95      23.93
O       2.90      12.97      16.99
O       1.04      13.62      18.12
O       1.11       6.99      18.19
O       2.59       7.81      16.76
O       2.83       9.59      22.70
O       1.36      11.24      22.69
O       2.83       4.97      19.35
O       1.36       3.33      19.35
O       1.11       7.58      23.86
O       2.59       6.75      25.28
