16

H       7.42       4.43       7.65
N       8.50       2.70       7.55
N       8.34       4.01       7.63
N       9.44       4.75       7.73
N      12.23       5.46       7.20
N      13.56       5.53       7.43
N      13.95       4.44       8.02
N      12.87       3.63       8.20
N       9.83       0.19       6.84
N      10.68      -0.87       6.95
N      11.74      -0.49       7.61
N      11.60       0.82       7.94
C       9.84       2.55       7.59
C      10.43       3.84       7.70
C      10.41       1.22       7.47
C      11.81       4.28       7.70
