19

H       3.34      25.76      12.08
H       1.23      26.56      17.30
C       2.24      21.93      16.55
C       2.19      28.34      12.60
C       1.82      24.45      16.21
C       2.83      25.90      13.03
C       2.33      23.23      15.80
C       2.25      27.11      13.38
C       2.64      24.93      14.04
C       1.97      25.42      15.17
C       1.23      24.62      17.56
S       3.02      23.25      14.22
S       1.48      27.06      14.94
O       1.25      21.20      16.25
O       3.18      21.65      17.35
O       1.22      29.14      12.84
O       3.11      28.54      11.73
O       0.87      25.89      17.92
O       1.04      23.70      18.33
