16

Br      14.15       6.13      19.49
Br      19.43       2.75      21.41
Br      16.56       7.75      20.92
Br      17.71       1.62      18.90
C      16.05       3.96      19.29
O      14.58       4.07      17.42
O      14.83       2.08      18.48
C      15.81       5.25      19.79
C      16.77       5.89      20.59
C      17.21       3.28      19.70
C      18.08       3.84      20.65
C      17.89       5.18      21.06
C      15.08       3.32      18.33
O      20.12       5.55      21.82
O      18.43       6.63      22.88
C      18.88       5.84      21.99
