40

N      -1.81      14.41       5.63
N      -0.98      13.82       4.71
N       2.93      10.42       9.13
N       3.99      12.08      10.50
N       4.81      12.09      11.53
H       5.91      12.40      14.31
H       6.47       8.34      12.91
N       3.65      10.79      10.31
H       1.16       4.46       8.66
N       2.38       7.07       8.61
N       3.06       8.16       8.44
H      -1.31       7.15      10.99
N       2.46       9.11       9.22
H       0.68      12.51       4.84
H      -1.93      14.37       7.76
H       4.13       8.87      11.17
N       0.91      11.62       9.75
H       0.77       9.24      10.55
N       1.91      11.32       8.87
N       0.05      12.35       9.09
H       2.38      11.71       6.82
C       6.45       9.28      13.45
C       5.85      10.50      13.11
C       6.18      11.36      14.17
C       0.40       4.94       9.26
C       0.35       6.26       9.75
C      -0.86       6.32      10.46
C      -0.07      13.08       5.38
C      -0.30      13.18       6.76
C      -1.41      14.03       6.87
C       5.02      10.81      11.97
C       4.28       9.94      11.17
C       1.32       7.30       9.48
C       1.37       8.61       9.90
C       0.47      12.50       7.78
C       1.68      11.85       7.64
N       6.92      10.70      15.08
N       7.09       9.41      14.63
N      -1.49       5.13      10.39
N      -0.71       4.28       9.65
