28

H       3.78       7.75       4.71
H       3.54       7.88       2.28
H       7.37       5.83       1.95
H       7.49       5.90       4.42
H       2.12       5.86      -1.93
H       5.97       7.86      -2.25
H       5.74       7.74      -4.68
H       2.00       5.94      -4.41
C       4.56       7.35       4.06
C       4.42       7.38       2.68
C       5.41       6.80       1.87
C       6.54       6.27       2.51
C       6.62       6.29       3.90
C       5.29       6.77       0.41
C       4.20       6.79      -0.39
C       2.95       6.29      -2.50
C       4.09       6.81      -1.85
C       5.09       7.37      -2.66
C       4.95       7.34      -4.04
C       2.88       6.32      -3.88
N       5.64       6.80       4.66
N       3.87       6.82      -4.65
N       6.62       6.71      -0.27
N       2.87       6.81       0.29
O       7.23       7.78      -0.35
O       7.00       5.61      -0.68
O       2.33       7.92       0.36
O       2.41       5.74       0.69
