32

H       2.32       9.37      22.42
C       1.38       7.83      20.91
C       1.41       8.96      21.98
C       0.22       6.53      26.50
H       0.34      10.81      20.99
C       0.28       7.36      25.31
S       2.81       7.15      20.12
S       0.12       5.39      22.09
H      -1.69       9.48      22.45
O       1.33       6.17      27.01
O      -0.95       6.18      26.88
H      -1.73       7.41      20.48
O       1.30       9.45      15.48
O      -0.97       9.47      15.54
O       2.40       6.01      19.36
O       3.55       8.24      19.57
O       3.63       6.57      21.40
O      -0.22       4.67      20.90
O       1.23       5.01      22.93
O      -1.22       5.44      22.99
H      -0.99       5.71      23.91
H       4.33       7.21      21.61
C       0.21       8.91      17.46
C       0.25       7.09      21.70
C       0.29       8.22      22.82
C      -0.85       7.88      20.92
C       0.27       8.62      20.08
C      -0.82       9.01      22.00
C       0.31       9.74      21.20
C       0.29       7.85      24.19
C       0.25       8.79      18.67
C       0.18       9.28      16.06
