28

C       7.15       8.85       4.91
C       8.34       9.01       5.64
C       9.53       9.19       4.90
C       9.52       9.21       3.51
C       8.36       8.99       7.04
C       8.37       8.97       8.26
C       8.39       8.97       9.67
C       7.20       9.13      10.41
C       7.22       9.12      11.80
C       8.41       8.95      12.53
C       9.59       8.79      11.78
C       9.58       8.80      10.39
C       8.42       8.92      14.03
C       8.32       9.04       1.27
F       5.95       8.68       2.91
F      10.69       9.42       2.89
F      10.69       9.36       5.55
F       5.99       8.67       5.57
F       6.03       9.30       9.77
F      10.74       8.64       9.72
F      10.78       8.60      12.38
F       6.04       9.31      12.43
O       9.48       9.30      14.61
O       7.36       8.50      14.59
O       7.26       9.42       0.70
O       9.39       8.64       0.71
C       8.32       9.04       2.78
C       7.14       8.87       3.52
