25

C       4.68      12.21      15.97
C       5.22      13.42      16.46
H       6.32       9.09      13.53
H       7.75      13.74      14.18
H       6.81      15.00      18.38
H       9.17      12.31      13.01
C       5.79      14.69      18.60
C       8.61      11.38      13.05
C       7.31      11.12      13.51
N       8.30       9.20      12.83
H       6.67      14.96      16.00
H       4.88      10.56      14.63
N       4.00      14.36      19.80
H       3.85      11.73      16.50
H       2.47      13.14      17.37
N       5.28      14.90      19.81
N       9.22      10.20      12.67
C       7.17       9.73      13.31
C       4.88      13.99      17.75
O       2.54      13.24      18.34
C       6.28      13.99      15.71
C       6.89      13.30      14.67
C       6.45      12.01      14.30
C       3.76      13.82      18.59
C       5.28      11.53      14.92
