50

C       1.21       8.15      20.59
C       0.14      10.67      24.82
H       1.65       7.90      19.63
H       0.11      10.96      25.87
C       1.13       7.20      21.57
C       0.29      11.62      23.85
H       0.97      10.16      18.78
H      -0.26       8.59      26.50
H       1.59       6.24      21.41
H       0.43      12.65      24.14
C      -0.03      13.70      21.64
C       0.38      14.67      20.70
C       0.15      16.03      20.88
C      -0.45      16.50      22.05
C      -0.84      15.57      23.01
C      -0.65      14.21      22.80
C       0.15       5.02      23.47
C       0.05       4.01      24.45
C      -0.10       2.66      24.12
C      -0.11       2.25      22.79
C      -0.02       3.22      21.80
C       0.08       4.57      22.13
H       0.95      14.39      19.82
H       0.49      16.72      20.11
H      -1.08      13.52      23.52
H       0.10       4.23      25.51
H      -0.19       1.94      24.93
H      -0.61      17.56      22.20
H      -1.34      15.91      23.92
H       0.01       5.28      21.32
H      -0.21       1.19      22.53
H      -0.06       2.94      20.75
O       0.90       5.85      26.99
O      -0.91      12.90      18.43
C       0.26      12.58      18.82
C      -0.20       6.11      26.39
O      -1.36       5.84      26.81
O       1.35      12.78      18.19
C       0.20      12.25      21.40
C       0.23       6.47      23.83
C       0.38      11.77      20.07
C      -0.05       6.94      25.14
C       0.74      10.45      19.81
C      -0.09       8.29      25.46
C       0.78       9.49      20.82
C       0.09       9.28      24.49
C       0.46       9.89      22.14
C       0.36       8.88      23.16
C       0.30      11.28      22.45
C       0.54       7.49      22.86
