16

S      11.41       7.40      12.96
S      14.98       9.00      11.52
C      10.41       9.60      14.32
O      10.56      10.79      14.75
C      12.64       9.70      13.09
C      13.75       6.69      11.40
C      11.50       9.05      13.51
C      14.89       7.35      10.99
C      12.92       7.55      12.17
C      13.46       8.85      12.33
C      15.98       6.80      10.17
O       9.41       8.83      14.53
O      16.93       7.61       9.88
H      12.85      10.74      13.35
H      13.55       5.66      11.15
O      15.88       5.57       9.82
