22

C       2.42       0.95      11.02
H       7.14      -1.31      11.12
H       1.86      -1.09      10.15
H       1.85      -1.04      11.93
H       1.99       1.46      11.89
H       2.04       1.43      10.10
H       7.58       2.26      11.39
H       8.34       0.69      11.50
N       7.57       1.26      11.18
O       6.09      -3.50      10.86
C       4.97      -2.90      11.06
O       3.85      -3.47      11.24
C       5.12       2.96      11.13
O       4.00       3.55      10.96
O       6.23       3.58      11.32
C       5.00      -1.41      11.08
C       5.13       1.48      11.11
C       3.84      -0.62      11.07
C       6.32       0.69      11.15
C       3.93       0.77      11.06
C       6.22      -0.72      11.12
C       2.33      -0.63      11.04
