20

H       6.15       6.51       9.54
H       5.24       4.97       9.41
H       5.26       4.78      11.94
H       6.19       6.30      12.04
C       8.39       4.42       7.65
C       8.45       3.83      13.50
C       8.40       4.21       9.12
C       8.42       3.94      12.01
C       7.37       4.70       9.94
C       9.45       3.42      11.20
C       7.38       4.57      11.32
C       9.44       3.55       9.80
C       6.07       5.48       9.92
C       6.09       5.35      11.50
O       9.51       4.64       7.08
O       9.58       3.91      14.06
O       7.31       3.67      14.06
O       7.24       4.41       7.10
F      10.47       2.72      11.74
F      10.45       2.97       9.13
