13

H      17.49      11.82      11.63
O      16.49       7.91      13.57
H      18.15      10.69      10.39
O      18.61       7.91      14.39
O      15.09      10.33      10.23
O      16.16      12.16       9.41
C      17.70       8.34      13.65
C      18.09       9.51      12.77
C      16.07      11.16      10.15
C      17.28      10.91      11.04
O      17.00       9.82      11.90
H      18.98       9.24      12.17
H      18.33      10.37      13.41
