16

C       6.30       5.62      17.20
C       3.90       5.92      17.27
C       6.25       5.63      15.82
O       4.03       5.39      13.00
C       5.10       5.71      13.62
O       6.22       5.94      13.07
C       5.14       5.71      19.44
O       6.27       5.92      19.99
O       4.05       5.46      20.04
H       7.24       5.52      17.73
H       2.98       6.05      17.85
H       7.15       5.52      15.22
Br       2.15       6.35      15.13
C       5.03       5.79      15.12
C       5.11       5.75      17.94
C       3.86       5.96      15.88
