20

H      11.49       3.66       8.45
H      13.02       2.90      10.72
H      14.31       6.31       7.42
H      13.46       5.66      11.28
H      13.87       3.55       6.87
H      15.83       5.55       9.69
O      15.54       1.63       9.98
O      11.78       7.57       8.16
O      16.60       2.74       8.28
O      10.73       6.47       9.86
C      13.56       5.18      10.30
C      13.76       4.03       7.84
C      15.65       2.58       9.13
C      11.67       6.63       9.01
C      13.30       3.66       9.99
C      14.03       5.55       8.15
C      12.47       4.06       8.73
C      14.86       5.14       9.42
C      12.73       5.59       9.02
C      14.59       3.62       9.12
