33

C      22.83       3.07      13.65
O      24.90       1.41      17.66
H      24.67       1.93      13.76
C      21.77       3.66      14.36
O      25.93       1.10      15.72
H      22.82       3.11      12.56
C      21.77       3.55      15.77
C      22.81       2.91      16.43
H      20.96       4.00      16.34
C      20.71       4.38      13.64
H      22.81       2.83      17.52
C      21.06       5.21      12.56
H      22.11       5.29      12.27
C      20.09       5.92      11.85
H      20.38       6.54      11.00
H      17.33       4.83      13.53
C      18.74       5.79      12.20
C      18.38       4.94      13.27
H      19.06       3.61      14.81
C      19.36       4.26      13.99
H      18.76       8.40      11.37
C      17.71       6.50      11.43
H      16.98       9.54      10.06
C      17.87       7.85      11.07
H      14.70       6.08       9.85
C      16.88       8.49      10.33
H      16.37       4.81      11.23
C      24.96       1.60      16.40
C      15.61       6.56      10.24
N      15.77       7.85       9.91
C      23.87       2.33      15.71
C      16.53       5.86      11.00
C      23.86       2.41      14.31
