24

C       4.15       8.25      23.73
H       4.20       6.25      22.97
H       4.54       8.68      22.80
C       3.96       6.88      23.83
C       3.45       6.29      25.00
H       2.82       6.71      27.03
C       3.84       9.11      24.80
H       3.15       9.14      26.85
C       3.22       7.13      26.10
C       3.41       8.51      26.00
C       2.75       4.05      26.11
C       3.76      11.52      25.69
H       2.80       4.26      27.18
H       3.91      11.39      26.76
C       2.83       4.05      23.92
C       3.60      11.32      23.50
H       2.92       4.28      22.86
H       3.53      11.00      22.47
N       2.35       2.83      25.68
N       3.50      12.74      25.18
N       2.40       2.84      24.31
N       3.41      12.61      23.83
C       3.07       4.88      25.03
C       3.81      10.56      24.66
