24

O      15.18       4.18      26.95
O      12.04       5.62      15.46
O      11.11       3.56      15.19
H      15.18       5.40      21.40
O      14.13       2.19      26.58
H      15.17       3.10      19.72
H      12.71       6.19      20.26
H      11.34       4.76      22.29
H      11.33       2.46      20.61
H      13.79       1.65      21.76
C      11.80       4.44      15.83
C      14.33       3.46      20.31
C      14.33       4.74      21.22
C      14.08       3.77      24.92
C      12.31       4.07      17.13
C      13.55       2.66      21.40
C      13.56       3.94      22.35
C      12.18       3.11      20.80
C      12.95       3.92      19.67
C      12.18       4.39      21.71
C      12.96       5.19      20.61
C      13.85       3.90      23.73
C      12.62       3.95      18.30
C      14.48       3.36      26.24
