30

H       6.01       9.04      11.68
H       5.99      10.48      13.71
H       0.84       9.55      14.29
H       1.39       8.25      15.36
H       0.86       7.95      12.36
H       3.33       5.54      13.13
H       2.94       3.29      14.11
H       0.75       2.75      15.17
H      -1.08       4.46      15.17
H      -0.68       6.70      14.18
C       4.10       7.32      10.82
C       2.98       8.22      12.90
C       4.08       8.17      12.04
C       5.16       9.03      12.36
C       5.14       9.84      13.49
C       4.04       9.86      14.37
C       2.96       9.07      14.01
C       1.54       8.72      14.39
C       1.57       7.70      13.16
C       4.06      10.64      15.63
C       1.36       6.28      13.60
C       2.37       5.31      13.58
C       2.14       4.04      14.14
C       0.91       3.74      14.72
C      -0.11       4.69      14.72
C       0.11       5.95      14.16
O       2.96       6.94      10.39
O       5.24       7.07      10.30
O       2.92      10.88      16.17
O       5.20      10.96      16.09
