12

H       5.06       2.20      11.14
C       4.81       3.60       9.56
O       3.79       3.20       8.90
H       6.30       0.47       9.94
C       5.64       2.54      10.27
O       5.13       4.83       9.66
H       5.04       1.03       8.86
C       5.96       1.34       9.37
O       7.20       2.86       7.95
C       6.99       1.66       8.31
O       7.66       0.69       7.79
H       6.55       3.01      10.65
