20

H       5.49       0.82      22.84
H       1.10      -0.82      24.52
H       5.40      -0.85      24.70
H       1.19       0.85      22.67
C       3.40       3.62      19.56
C       3.18      -3.62      27.80
C       4.49      -0.47      24.25
C       2.10       0.47      23.12
C       3.25      -0.94      24.73
C       3.35       0.94      22.64
C       2.06      -0.45      24.15
C       4.54       0.46      23.22
C       3.20      -1.88      25.79
C       3.39       1.88      21.58
C       3.40       2.68      20.66
C       3.18      -2.68      26.70
O       4.53       3.92      19.07
O       2.05      -3.94      28.27
O       2.25       4.03      19.19
O       4.32      -4.01      28.21
