28

C       2.81      16.03      18.01
C       4.26      18.48      18.01
C       2.05      14.74      18.01
C       0.20      18.45      19.13
H       6.82      14.03      16.82
H      -0.88      18.57      19.20
C       5.85      17.26      16.39
I       6.10      18.72      14.89
I       3.58      20.21      21.12
H       0.64      20.08      20.51
C       2.42      19.29      19.63
O       4.61      20.75      17.26
H       7.40      16.09      15.51
C       6.57      16.11      16.22
H       4.58      13.92      17.88
O       6.07      19.88      18.76
C       1.06      19.36      19.80
H       0.11      16.56      18.13
C       4.96      14.87      17.50
O       1.16      14.58      18.92
C       0.75      17.35      18.52
C       5.04      19.81      18.01
O       2.33      13.88      17.10
C       4.17      16.05      17.63
C       6.19      14.92      16.89
C       2.17      17.23      18.39
C       4.76      17.34      17.33
C       3.01      18.37      18.68
