16

C       3.67       2.90       5.80
C       4.79       2.50       2.40
S       2.43       3.64       3.64
C       5.94       1.87       2.85
C       3.96       2.86       3.48
S       6.02       1.71       4.58
C       4.51       2.51       4.73
C       2.51       3.52       5.37
C       1.41       4.05       6.18
O       6.99       1.59       0.77
O       7.93       0.67       2.64
O       0.38       4.44       5.52
O       1.58       4.08       7.44
C       7.03       1.34       2.03
F       3.99       2.66       7.08
H       4.59       2.67       1.34
