15

N      13.72       4.51       4.47
H      14.43       4.56       6.49
C      14.28       3.98       3.33
C      18.46       1.28       2.46
C      15.50       3.39       3.65
C      17.52       2.03       3.31
N      15.65       3.58       5.01
H      16.48       3.35       5.61
C      14.58       4.26       5.46
H      16.21       2.62       1.77
O      19.37       0.61       3.09
C      16.43       2.66       2.83
H      17.76       2.04       4.37
O      18.41       1.30       1.20
H      13.79       4.04       2.36
