26

O      19.32       8.99      17.64
O      19.34       7.11      16.36
O      11.25      13.32      10.85
O      11.33      11.47       9.53
F      16.02       7.84      12.84
F      14.58      12.63      14.37
H      17.78       7.14      14.48
C      12.74      11.60      11.44
H      12.91       9.73      10.38
C      17.87       8.87      15.77
C      17.38       8.14      14.69
H      14.63       8.82      11.86
H      17.70      10.72      16.84
H      15.97      11.64      15.39
C      16.40       8.67      13.87
C      13.22      12.33      12.52
C      14.20      11.80      13.34
C      13.27      10.32      11.22
C      14.25       9.81      12.06
C      17.34      10.14      16.00
C      16.35      10.65      15.17
C      18.93       8.28      16.66
C      15.82       9.95      14.05
C      14.77      10.52      13.17
C      11.69      12.17      10.54
H      12.83      13.33      12.72
