31

H       5.02       3.60       9.93
H       5.03       1.61       8.42
H       3.84       6.30       4.54
H       4.32       0.77       3.86
H       3.49       8.64       2.29
C       4.39       6.14       9.28
C       4.79       2.60       8.04
C       4.42       4.96       8.37
C       3.61       4.27       1.86
C       3.64       5.47       2.60
C       3.82       5.38       3.98
C       4.00       4.15       4.65
C       4.03       2.95       3.86
C       4.21       4.03       6.09
C       4.51       2.75       6.66
C       4.52       1.62       5.79
C       4.28       1.68       4.46
C       4.14       5.09       7.02
C       4.78       3.69       8.88
C       3.81       3.04       2.46
C       3.80       1.81       1.60
C       3.51       6.79       1.94
O       5.52       6.54       9.70
O       3.26       6.63       9.58
O       4.94       1.35       1.28
O       2.66       1.35       1.28
O       3.36       6.99       0.74
O       3.57       7.83       2.83
F       4.79       0.41       6.36
F       3.81       6.35       6.60
F       3.42       4.29       0.53
