55

C       9.43       5.57       7.47
C       3.27      12.02      -0.87
C       4.25      11.37      -2.70
C       5.24      11.47      -1.75
H      10.00      10.13       7.18
H       9.10      12.18       6.12
C       5.23      12.06       0.68
H       6.04       9.82       4.19
C       6.37      11.30       0.98
H       6.99       7.77       5.20
C       4.71      12.95       1.62
C       5.30      13.04       2.88
H      11.23       8.10       6.57
H       9.30       4.55       7.82
C       6.98      11.43       2.22
C       6.43      12.27       3.20
H       2.53      12.33      -0.14
C       6.97      13.51       5.25
H       4.34      11.07      -3.73
H       6.31      11.35      -1.80
C       6.66      18.31       9.40
H       6.78      10.61       0.25
C       7.70      18.12       7.50
H       3.84      13.56       1.38
C       6.33      17.08       8.91
H       4.87      13.71       3.63
C       6.98      15.82       6.85
C       7.35      15.90       5.50
H       7.87      10.84       2.44
C       6.59      14.59       7.39
H       6.33      18.78      10.32
C       6.57      13.45       6.60
H       8.34      18.30       6.65
C       7.35      14.75       4.71
H       5.70      16.29       9.31
C       8.46       6.48       7.15
H       7.64      16.85       5.05
H       6.29      14.51       8.44
H       6.26      12.50       7.03
C       8.55       8.82       6.25
H       7.67      14.80       3.66
H       7.38       6.41       7.15
N       3.04      11.70      -2.14
C       7.51      11.14       5.08
N       4.61      11.89      -0.59
C       9.14      10.06       6.51
N       7.00      12.32       4.49
C       7.43       8.74       5.43
C       8.63      11.21       5.93
N       7.52      18.95       8.52
C       6.90       9.90       4.86
N       6.99      16.96       7.69
N      10.67       6.14       7.29
N       9.13       7.63       6.76
C      10.47       7.39       6.86
