17

O      10.39       4.83      13.26
C      13.55       8.18      18.03
H      14.43       8.75      17.73
C      10.90       5.85      16.69
H      11.76       6.38      14.80
C      11.70       6.71      17.56
H      10.16       5.23      17.19
C      12.82       7.44      17.11
H      13.15       7.42      16.07
H      10.48       6.30      19.30
C      10.19       4.90      14.50
C      11.35       6.83      18.91
N      13.23       8.25      19.34
O       9.24       4.21      15.07
C      11.02       5.78      15.34
C      12.13       7.61      19.76
H      11.88       7.71      20.82
