26

O       4.16       6.17       8.32
O       5.39       5.20       6.67
O       8.03      11.91       7.06
H       8.23       9.00       9.70
H       6.13       7.71       4.39
H       4.60       8.40       5.03
H       5.91       6.28      10.22
H       7.54       5.76       9.77
H       7.34       7.14      10.86
H       4.63      10.81       5.95
H       5.98      11.89       5.53
H       5.03      11.10       4.23
C       8.40      10.97       7.83
C       5.17       6.11       7.55
C       6.90       9.33       6.63
C       7.65       9.69       7.75
C       7.64       8.76       8.81
C       6.89       7.57       8.79
C       6.13       7.25       7.63
C       6.21       8.13       6.56
C       5.69       8.37       5.16
C       6.39       9.78       5.27
C       6.92       6.65       9.97
C       5.46      10.98       5.24
Br       7.83      10.04       3.92
O       9.40      11.03       8.65
