28

C      -4.89       5.49      21.92
C      -4.21       3.63      18.67
C      -4.39       4.74      17.67
H      -4.82       2.29      23.08
C      -3.31       5.06      16.83
H      -4.38       1.85      20.65
H      -4.59       6.08      19.87
C      -3.43       6.09      15.91
H      -5.04       6.50      22.29
C      -4.64       6.79      15.78
H      -2.37       4.51      16.93
C      -5.74       6.43      16.58
C      -5.60       5.42      17.54
H      -2.59       6.38      15.28
C      -4.77       7.91      14.81
H      -6.68       6.96      16.46
H      -6.45       5.16      18.17
C      -5.33       4.68      24.24
O      -5.75       5.85      24.52
C      -4.95       4.42      22.82
O      -5.26       3.72      25.07
C      -4.76       3.11      22.37
O      -5.89       8.52      14.75
C      -4.53       2.86      21.02
O      -3.75       8.19      14.09
C      -4.49       3.93      20.10
O      -3.82       2.52      18.30
C      -4.65       5.25      20.57
