33

Cl       4.33       5.13      18.10
Cl       3.10       7.72      18.46
Cl       1.38       2.66      21.81
Cl      -0.30       5.60      22.23
O       4.88       5.86      25.47
O       0.55       6.82      14.40
H       1.34       7.12      21.62
O      -0.46       4.79      14.58
H       0.68       7.26      19.41
O       4.02       3.76      25.59
H       1.77       1.83      18.93
H       1.53       2.85      17.49
H       3.11       2.82      18.29
H       3.56       7.01      20.94
H       4.41       5.48      20.71
H       0.48       3.79      19.54
H      -0.31       5.81      19.59
H       3.24       3.45      20.67
C       0.31       5.74      15.01
C       0.70       6.22      19.74
C       3.10       6.01      19.06
C       3.45       5.99      20.56
C       3.38       5.13      23.85
C       1.67       5.40      18.85
C       1.09       6.13      21.23
C       2.36       5.26      21.40
C       2.23       3.85      20.77
C       1.57       3.92      19.38
C       2.84       5.20      22.76
C       1.26       5.48      17.46
C       0.87       5.55      16.31
C       4.13       4.90      25.06
C       2.03       2.79      18.46
