17

C       4.91       2.53       2.40
O       4.09       2.61       7.14
C       2.67       3.54       5.40
C       7.13       1.31       2.00
H       4.93       2.13       7.20
C       4.10       2.90       3.49
H       4.71       2.73       1.35
O       7.02       1.46       0.73
O       8.09       0.74       2.63
O       0.61       4.63       5.53
C       1.56       4.08       6.20
O       1.63       3.97       7.47
C       6.04       1.86       2.82
C       3.81       2.87       5.83
C       4.63       2.51       4.73
S       2.59       3.72       3.67
S       6.13       1.68       4.55
