22

H       6.92       1.69      12.55
H       7.27      -0.77      12.53
C       3.59      -1.28      11.36
H       3.06       3.32      11.64
H       2.18       1.04      11.15
H       4.07      -3.38      11.40
O       4.71       4.98      12.30
O       6.80       4.19      12.58
O       7.77      -3.18      12.79
H       2.55      -1.42      11.07
O       6.22      -4.53      11.93
C       5.56       4.02      12.36
C       5.89       1.55      12.23
C       5.76      -2.18      11.97
C       5.05       2.64      12.09
C       4.05       0.04      11.58
C       5.42       0.23      11.99
C       6.64      -3.36      12.24
C       6.24      -0.90      12.18
C       3.70       2.44      11.71
C       3.22       1.18      11.44
C       4.42      -2.36      11.54
