14

C      12.97      15.10       0.04
H      15.15      13.62      -0.86
C      15.01      12.89      -0.07
H      12.05      13.79       1.39
H      13.82      15.36      -0.59
C      11.88      16.10       0.04
O      12.04      17.07      -0.77
C      16.06      11.85       0.00
O      17.03      12.00      -0.82
C      12.93      13.96       0.76
O      10.89      15.91       0.83
H      13.88      12.15       1.53
O      15.92      10.90       0.85
C      13.96      12.94       0.78
