26

C      24.66      14.40       1.89
C      23.58      13.75       2.74
C      23.42      12.26       2.40
C      22.35      11.61       3.31
C      21.77      12.66       4.28
C      21.16      13.81       3.47
C      22.23      14.47       2.57
C      22.93      13.22       5.14
C      24.01      13.86       4.23
C      20.73      12.04       5.21
O      24.53      15.65       1.64
O      25.62      13.66       1.50
O      20.88      10.82       5.53
O      19.80      12.81       5.62
H      24.39      11.76       2.51
H      23.14      12.16       1.34
H      21.54      11.18       2.71
H      22.78      10.78       3.90
H      20.33      13.42       2.86
H      20.72      14.55       4.16
H      22.36      15.53       2.81
H      21.94      14.42       1.51
H      23.36      12.40       5.73
H      22.53      13.96       5.85
H      24.15      14.92       4.48
H      24.98      13.36       4.36
