12

O       4.76       1.27      16.96
O       1.41       3.49      14.21
N       4.89       3.72      13.22
N       5.72       2.43      14.82
C       3.83       3.33      14.01
C       5.99       3.16      13.73
C       3.87       1.81      16.23
C       4.36       2.51      15.02
C       2.49       3.87      13.62
H       6.99       3.28      13.32
O       2.47       4.72      12.68
O       2.63       1.77      16.52
