22

C      16.21       4.37       2.87
C      11.66       1.59       5.21
H      14.32       2.98       1.59
H      13.74       2.68       6.50
H      17.24       2.76       2.61
H      12.66      -0.02       5.57
C      15.99       3.94       5.87
O      15.68       3.93       7.10
O      17.09       4.34       5.36
C      12.18       1.52       2.23
O      11.33       0.73       2.75
O      12.35       1.76       0.99
C      14.97       3.40       4.91
O      16.09       5.57       2.72
C      13.11       2.22       3.18
C      15.14       3.52       3.52
C      12.91       2.15       4.57
C      14.21       2.92       2.67
C      13.85       2.73       5.42
O      17.27       3.70       2.34
O      11.78       0.36       5.79
O      10.63       2.22       5.31
