78

H       7.61      14.52       3.98
H       8.38      14.69       5.57
H       2.98      15.87      11.29
H       2.80      17.29      12.36
H       4.05      14.60      13.16
H       3.88      16.01      14.22
H       1.34      15.87      13.94
H       2.02      14.40      14.66
H       1.56      14.41      12.95
H       4.37      20.85       5.76
H       3.50      20.73       7.32
H       3.69      18.51       5.20
H       2.88      18.34       6.76
H       1.27      20.21       6.15
H       1.21      18.89       4.97
H       2.08      20.38       4.58
H       5.57      20.72      13.36
H       6.42      20.70      11.79
H       6.34      18.39      13.81
H       7.13      18.31      12.24
H       7.78      14.57      10.96
H       8.69      20.19      12.89
H       8.81      18.84      14.03
H       7.91      20.30      14.48
H       3.45      20.53      11.61
H       6.49      20.67       7.51
H       2.55      23.24      11.50
H       7.23      23.40       7.68
H       2.38      14.59       7.94
H       7.10      16.02       7.46
H       7.11      17.44       6.37
H       5.84      14.70       5.75
H       5.78      16.11       4.69
H       7.13      11.60      10.59
H       3.04      11.62       8.38
H       8.30      16.08       4.47
C       6.07      13.22      10.08
C       4.05      13.23       8.91
C       6.12      14.62      10.06
C       4.02      14.63       8.88
C       5.07      15.34       9.47
C       5.17      17.54       8.29
C       4.89      17.49      10.70
C       5.12      18.94       8.32
C       4.88      18.89      10.72
C       4.98      19.65       9.54
C       5.06      16.81       9.49
C       3.99      21.84      10.32
C       5.86      21.91       8.82
C       3.99      23.24      10.31
C       5.77      23.30       8.86
C       4.94      21.13       9.56
C       6.56      16.52       6.64
C       6.40      15.60       5.44
C       7.74      15.20       4.83
C       3.40      16.38      12.17
C       3.42      15.47      13.38
C       2.01      15.01      13.75
C       4.02      20.15       6.54
C       3.13      19.07       5.97
C       1.85      19.67       5.38
C       5.93      20.07      12.54
C       6.87      18.99      13.06
C       8.14      19.62      13.65
N       5.04      12.55       9.52
N       4.86      23.97       9.59
O       7.19      15.27      10.61
O       2.97      15.28       8.31
O       5.23      16.88       7.09
O       4.77      16.79      11.87
O       5.26      19.62       7.12
O       4.70      19.52      11.95
O       3.00      21.27      11.09
O       6.88      21.41       8.06
O       3.09      23.92      11.05
O       6.66      24.04       8.16
O       7.11      12.61      10.67
O       3.02      12.61       8.30
