26

H       8.77       7.79      12.20
H       5.72       5.28      15.33
H       9.89       7.66      13.58
H      10.42       7.16      11.96
H       9.88       5.14      13.33
H       8.76       5.29      11.96
H       5.70       7.79      15.09
H       4.59       7.66      13.71
H       4.05       7.16      15.33
H       4.60       5.14      13.96
C       6.32       5.78      12.05
C       9.07       5.75      12.91
C       9.57       7.17      12.65
C       5.41       5.75      14.39
C       4.91       7.17      14.64
C       8.36       5.91      17.89
C       6.12       5.91       9.41
C       6.14       5.84      10.84
C       8.33       5.84      16.45
C       6.58       5.72      13.43
C       7.89       5.72      13.86
C       8.15       5.78      15.24
O       9.47       6.15      18.47
O       5.01       6.15       8.83
O       7.23       5.71      18.46
O       7.25       5.72       8.84
