20

H      11.30      13.42      22.63
H      13.74      14.77      19.35
H       9.68      12.44      20.98
H      10.45      14.20      16.59
S      12.44      13.86      17.07
O       9.01      11.55      18.90
O       9.58      12.90      17.18
C       9.73      12.45      18.38
C      13.60      14.75      22.04
O      13.36      14.60      23.29
O      14.59      15.36      21.52
C      10.78      13.06      19.26
C      12.61      14.16      21.09
C      11.95      13.72      18.80
C      11.47      13.50      21.55
C      12.85      14.26      19.71
C      10.57      12.96      20.64
O      11.28      14.75      16.45
O      13.63      14.66      17.00
O      12.42      12.54      16.50
