38

O       3.65      10.87       8.75
H       4.15      15.75      11.75
H       4.82      13.32      11.62
H       2.18      15.41       7.94
H       2.45      19.24       6.88
H       2.78      12.97       7.85
H       0.04      22.82       6.86
H      -0.03      21.53       5.63
H       1.66      24.09       5.48
H       1.63      22.82       4.25
H      -0.84      23.26       3.85
H       0.13      24.72       3.58
H      -0.80      24.54       5.08
H       0.84      21.37      11.06
H       1.60      18.98      11.10
C       1.00      23.12       9.10
C       3.84      13.01       9.73
C       3.09      13.59       8.69
C       2.76      14.94       8.74
C       4.22      11.57       9.66
C       3.15      15.72       9.84
C       3.87      15.13      10.89
C       4.24      13.79      10.82
C       1.63      19.57      10.18
C       1.20      20.89      10.15
C       2.11      18.99       9.00
C       1.27      21.66       8.98
C       1.71      21.05       7.78
C       2.12      19.72       7.80
C       0.61      22.32       6.06
C       1.02      23.33       5.00
C      -0.19      24.00       4.35
N       2.82      17.08       9.98
N       2.55      17.65       8.88
O       1.80      21.70       6.58
O       1.78      23.90       8.45
O       5.08      11.16      10.50
O       0.05      23.48       9.87
