46

C      10.78      10.13      13.24
C      11.89      10.67      12.57
C      11.88      11.03      11.23
C      10.69      10.76      10.48
C       9.55      10.28      11.15
C       9.57      10.00      12.52
C       9.14      11.34       5.88
C       9.02      11.55       4.51
C      11.44      11.47       4.27
C      11.57      11.27       5.64
C      10.43      11.20       6.47
C      10.54      11.03       7.87
C      10.62      10.93       9.08
C      10.17      11.63       3.70
H       8.06      11.70       4.03
H       8.64      10.09      10.59
H      12.80      10.80      13.16
H      12.55      11.16       6.10
H      12.32      11.54       3.63
C      10.00      11.99       2.27
C       6.79      11.43       6.20
C       7.71      10.46      13.91
C      13.07      11.66      10.62
C      12.93      12.69       9.68
C      14.05      13.28       9.10
C      15.33      12.88       9.48
C      15.48      11.87      10.43
C      14.36      11.26      10.99
H       6.56      10.64       5.47
H       6.68      12.41       5.71
H       6.10      11.36       7.05
H       7.36      11.32      13.31
H       8.35      10.81      14.73
H       6.84       9.92      14.31
H      11.93      13.04       9.40
H      13.92      14.07       8.36
H      16.20      13.36       9.03
H      16.48      11.53      10.73
H      14.49      10.45      11.71
O      10.01       9.27      15.34
O       8.82      12.20       1.85
O      11.06      12.14       1.56
O      12.23       9.41      14.93
O       8.10      11.27       6.75
O       8.40       9.53      13.06
C      11.02       9.58      14.60
