32

H       3.17       7.69      20.35
H       1.15       2.82      22.13
H       1.55       4.23      23.19
H       2.13       2.60      23.62
H       4.08       8.68      18.44
H       2.28       8.62      18.43
H       3.18       8.74      16.88
H       4.50       1.83      20.86
H       5.13       2.09      19.19
H       4.05       0.71      19.53
C       4.19       3.30      14.96
C       3.63       3.80      16.18
C       3.16       3.83      19.70
C       3.12       4.32      21.02
C       3.16       6.62      20.14
C       3.19       6.13      18.83
C       3.22       4.72      18.60
C       3.15       5.72      21.23
C       3.17       6.20      22.56
C       3.40       4.22      17.30
C       3.17       6.55      23.73
C       2.80       6.88      25.07
C       1.91       3.28      22.79
C       3.19       8.32      17.89
C       4.28       1.75      19.79
O       2.10       6.04      25.68
O       3.16       8.04      25.52
O       4.94       4.08      14.30
O       3.91       2.08      14.64
O       3.15       3.43      22.06
O       3.23       6.90      17.72
O       3.10       2.50      19.44
