48

H       1.88       1.83       1.11
H       1.87       6.13       1.06
H       1.62       4.02       4.80
H       1.06      -1.81       3.56
H       0.89       0.30       2.28
H       2.82       2.39       5.53
H       2.90       2.05      -0.70
H       0.98       5.81      -3.30
H       0.84       5.84      -0.83
H       0.62       7.53       2.13
H       2.58       8.02       6.65
H       2.71       5.83       5.50
C       2.05       3.92      -4.90
C       1.47      10.27       5.87
C       2.05      -2.19       6.04
C       1.84       3.98       0.91
C       1.84       2.78       1.64
C       1.80       2.78       3.05
C       1.72       4.01       3.71
C       1.73       5.22       3.01
C       1.80       5.19       1.61
C       1.44      -0.88       3.99
C       1.36       0.31       3.27
C       1.85       1.51       3.80
C       2.40       1.49       5.10
C       2.44       0.30       5.83
C       1.98      -0.90       5.28
C       2.45       2.87      -1.25
C       2.48       2.84      -2.64
C       1.99       3.91      -3.40
C       1.41       4.99      -2.72
C       1.35       5.01      -1.33
C       1.89       3.96      -0.57
C       1.05       7.62       3.13
C       0.98       8.85       3.78
C       1.51       9.01       5.07
C       2.13       7.89       5.66
C       2.20       6.66       5.02
C       1.66       6.51       3.73
Br       3.15       0.36       7.59
Br       3.20       1.31      -3.50
Br       0.20      10.28       2.79
O       3.02      -2.97       5.77
O       3.02       4.55      -5.43
O       2.41      10.43       6.73
O       1.11      -2.43       6.87
O       0.52      11.08       5.69
O       1.12       3.33      -5.52
