28

H      15.24       9.32      14.74
H      15.23       9.33      12.24
H      19.53       9.08      12.28
H      15.39       9.34       7.82
Cl      20.13       8.98      14.96
H      19.70       9.18       7.91
Cl      14.80       9.39       5.15
H      19.71       9.18       5.41
O      18.90       9.33       3.23
O      16.64       9.12       3.03
O      16.13       8.98      16.92
O      18.31       9.61      17.06
C      17.71       9.24       3.71
C      17.27       9.27      16.42
C      17.37       9.22      14.92
C      16.17       9.27      14.18
C      16.16       9.28      12.79
C      17.38       9.22      12.09
C      18.59       9.14      12.81
C      18.58       9.14      14.20
C      17.42       9.23      10.67
C      17.49       9.24       9.45
C      17.54       9.25       8.04
C      16.34       9.30       7.30
C      16.36       9.30       5.91
C      17.58       9.25       5.20
C      18.77       9.21       5.96
C      18.77       9.21       7.35
