66

H       7.51       1.31      11.74
H       7.70      -1.06       7.52
H       9.21      -1.14       8.40
H       5.28      -1.20      10.18
H       9.05       1.24      10.92
H      12.20       2.52       9.10
H      11.95       2.57       7.34
H      11.84       4.06       8.28
H       9.55       3.27       7.71
H       9.80       3.23       9.45
H      10.22       0.80       9.38
H      10.25       0.80       7.63
H       3.55       0.68      13.07
H       3.17       2.31      12.47
H       1.98       1.00      12.31
H       3.08       1.39      10.10
H       3.50      -0.20      10.71
H       5.61       0.81      11.69
H       5.22       2.34      10.91
H       5.74      -1.70      14.52
H       7.43      -2.12      14.88
H       6.69      -0.69      15.62
H       8.22      -0.03      13.73
H       6.56       0.44      13.42
H       6.16      -1.39      11.92
H       7.58      -2.26      12.43
H      11.71      -2.54      12.14
H      12.23      -1.00      11.43
H      12.27      -1.22      13.20
H      10.28       0.17      12.55
H       9.78      -1.37      13.26
H       9.41      -2.36      11.03
H      10.07      -0.92      10.26
H       5.62      -1.07       8.46
C       7.32      -5.34       9.59
C       8.20      -0.71       8.42
C       8.28       0.84       8.41
C       5.87       0.80       9.56
C       7.21       4.02       9.68
C       7.40      -1.24       9.65
C       7.35       1.37       9.57
C       8.02       0.85      10.89
C       8.03      -0.71      11.00
C       7.30       2.82       9.61
C       7.39      -2.69       9.62
C       7.35      -3.90       9.59
C       7.22       5.46       9.69
C       9.77       1.28       8.50
C      10.11       2.77       8.51
C      11.61       2.99       8.30
C       5.11       1.25      10.82
C       3.63       0.88      10.90
C       3.05       1.23      12.26
C       7.21      -1.25      12.21
C       7.22      -0.44      13.52
C       6.74      -1.28      14.70
C       9.47      -1.26      11.12
C      10.26      -0.92      12.38
C      11.70      -1.44      12.29
C       5.95      -0.74       9.45
Cl       4.92       1.46       8.16
Cl       7.75       1.44       6.77
O       6.21      -5.88       9.92
O       8.40      -5.94       9.26
O       6.14       6.04       9.35
O       8.32       6.02      10.03
