16

C       1.58      -7.80      13.69
C      -1.73      -5.48       9.56
O      -2.89      -5.07       9.91
H       0.97      -5.57       9.64
H       2.41      -6.49      11.48
C       0.53      -6.03      10.52
O      -1.24      -5.43       8.38
C       1.32      -6.56      11.53
C       0.73      -7.20      12.63
C      -0.67      -7.28      12.72
C      -1.47      -6.69      11.74
C      -0.87      -6.08      10.63
H      -1.12      -7.79      13.57
H      -2.55      -6.70      11.82
O       1.08      -8.79      14.34
O       2.73      -7.29      13.88
