30

C       5.62       7.92      24.68
C       4.64       6.91      24.74
C       4.87       2.48      31.54
C       4.95       3.39      30.37
H       6.68       4.44      31.10
C       3.76       6.78      23.64
C       3.85       7.63      22.54
H       6.84       5.93      29.11
C       5.97       4.35      30.29
C       6.04       5.18      29.17
C       4.49       6.00      25.87
H       3.37       3.99      27.42
H       3.24       2.52      29.39
C       5.12       5.08      28.11
C       4.10       4.10      28.22
H       6.09       6.68      27.06
C       4.02       3.27      29.32
C       5.26       5.97      26.98
O       5.67       2.68      32.52
H       6.46       9.55      23.56
O       4.00       1.54      31.47
H       6.32       8.05      25.51
H       2.99       6.01      23.67
H       3.16       7.53      21.70
O       5.80      10.49      21.44
C       4.92       9.57      21.35
H       3.66       5.29      25.78
O       4.12       9.38      20.37
C       4.83       8.63      22.51
C       5.71       8.77      23.59
