36

H      22.65       7.88      24.73
H      22.15       9.45      22.90
H      20.12       9.12      21.49
H      19.12       5.60      23.72
H      19.18       7.82      19.88
H      17.09       7.68      18.54
H      14.90       6.49      22.04
H      16.99       6.63      23.39
O      21.41       1.93      28.84
O      23.58       2.62      28.71
O      13.53       6.75      19.99
O      14.75       7.24      18.14
C      22.35       2.68      28.38
C      21.97       3.70      27.36
C      22.96       4.49      26.75
C      22.61       5.42      25.78
C      21.27       5.61      25.40
C      20.29       4.82      26.03
C      20.63       3.87      26.98
C      20.93       6.60      24.35
C      21.77       7.70      24.10
C      21.49       8.60      23.07
C      20.36       8.42      22.28
C      19.47       7.36      22.54
C      19.77       6.46      23.57
C      18.23       7.23      21.73
C      18.24       7.53      20.36
C      17.08       7.45      19.60
C      15.87       7.08      20.21
C      15.85       6.77      21.58
C      17.02       6.84      22.32
C      14.62       7.02      19.39
H      24.00       4.34      27.04
H      23.40       5.99      25.30
H      19.24       4.97      25.77
H      19.86       3.27      27.46
