13

C       9.01       3.74       6.00
C       8.86       1.63       2.98
C       9.35       2.49       5.20
O       8.46       2.43       4.09
H       9.55       2.19       2.33
H       9.34       0.70       3.31
C       7.60       1.30       2.19
H       9.21       1.61       5.86
H      10.40       2.53       4.87
O       7.92       4.33       5.74
O       9.87       4.06       6.88
O       6.54       1.94       2.44
O       7.75       0.39       1.31
