53

C      22.34       4.84      20.57
Si      22.17      -1.08      18.91
C      21.87       0.50      15.06
H      20.17       0.75      20.25
C      20.66      -1.60      15.05
C      19.40      -1.73      19.40
H      24.39       3.32      19.68
H      22.03      -3.60      20.51
C      19.95      -4.06      20.81
C      18.63      -3.68      20.59
H      24.34       0.90      19.13
C      26.02      -3.47      20.03
H      20.73      -2.74      16.87
C      17.52      -4.56      21.09
H      22.85       1.03      16.90
C      24.24      -1.95      20.62
H      20.24       3.17      20.80
C      25.35      -2.70      20.99
H      22.17       1.41      14.54
C      27.17      -4.30      20.46
H      20.02      -2.31      14.53
H      19.17      -0.84      18.81
C      18.35      -2.50      19.89
C      24.47      -2.73      18.33
H      20.15      -4.99      21.35
H      23.73      -1.35      21.37
C      25.59      -3.47      18.70
H      25.72      -2.70      22.01
O      23.44       5.51      20.53
H      17.31      -2.22      19.70
O      19.51      -0.79      12.66
O      17.82      -5.44      21.97
H      24.13      -2.74      17.30
H      26.13      -4.07      17.96
O      21.24       5.42      20.87
C      20.75      -2.09      19.62
O      21.08       0.86      12.42
C      22.24       0.65      19.62
O      16.36      -4.35      20.61
C      23.77      -1.97      19.29
O      27.48      -4.39      21.70
O      27.88      -4.94      19.59
C      21.04      -0.41      14.41
C      22.31       3.39      20.25
C      21.10       1.31      20.11
C      23.47       2.75      19.79
C      20.50      -0.09      13.04
C      21.00      -3.28      20.33
C      23.43       1.39      19.48
C      21.06      -1.83      16.36
C      21.84      -0.89      17.07
C      22.25       0.27      16.38
C      21.13       2.66      20.43
