20

H      13.83       8.31       8.15
O      11.44       5.69      12.57
O      10.39       7.71      12.54
H      14.06       8.51       5.69
F       9.84       6.20       7.72
H      10.25       6.51       5.19
C      11.04       6.91       5.82
C      10.94       6.81       7.19
C      11.92       7.30       8.08
C      12.18       7.53       5.26
C      12.32       7.62       3.85
C      11.76       7.17       9.48
C      12.47       7.70       2.64
C      11.13       6.81      12.03
C      11.58       7.04      10.68
C      12.92       7.89       1.29
C      13.05       7.92       7.50
C      13.18       8.03       6.12
O      13.80       7.07       0.87
O      12.47       8.90       0.64
