12

C       2.62      18.40      10.62
C       0.16      17.47      10.09
H      -0.85      17.11       9.88
O       4.53      19.68      10.06
C       0.82      18.31       9.20
O       4.53      18.55      12.02
H       0.36      18.64       8.27
C       0.82      17.13      11.26
H       0.36      16.48      12.01
N       2.05      18.77       9.47
C       4.01      18.93      10.93
N       2.05      17.59      11.52
