32

H       3.34       8.89       2.64
H       3.67      10.19       1.47
H       2.26       9.15       1.26
H       6.47       5.66      -2.65
H       7.55       5.41      -1.26
H       6.14       4.36      -1.47
H       3.27       9.18      -2.40
H       2.06       8.93      -1.13
H       3.27      10.20      -0.94
H       6.53       5.37       2.40
H       6.54       4.35       0.93
H       7.75       5.62       1.13
C       5.26       7.21       4.01
C       4.55       7.34      -4.01
C       4.03       8.20      -0.63
C       5.78       6.35       0.63
C       4.13       8.19       0.76
C       5.67       6.36      -0.76
C       5.29       7.00       5.44
C       4.52       7.55      -5.44
C       4.79       7.27      -1.39
C       5.02       7.28       1.39
C       4.67       7.28      -2.80
C       5.14       7.27       2.80
C       3.31       9.15       1.58
C       6.50       5.40      -1.58
C       3.11       9.18      -1.32
C       6.69       5.37       1.32
O       5.21       8.03       6.19
O       4.60       6.52      -6.19
O       4.43       8.76      -5.81
O       5.37       5.78       5.81
