20

C       0.52       7.46      11.68
C      -0.95       7.46      11.70
H       3.18       9.38      10.74
H      -3.68       5.41      11.60
H       3.29       5.63      12.51
H      -3.64       9.55      11.78
H       0.69       9.41      10.73
N       3.32       7.52      11.64
H       0.79       5.51      12.60
H      -1.17       9.62      11.87
H      -1.20       5.30      11.54
N      -3.76       7.48      11.69
C       1.22       8.56      11.15
C      -1.69       6.26      11.63
C       1.28       6.38      12.17
C      -1.67       8.66      11.78
C       2.61       8.55      11.15
C      -3.08       6.32      11.64
C       2.66       6.45      12.14
C      -3.06       8.63      11.75
