14

Cl       9.64      13.18      12.54
Cl       5.87      14.52      10.97
O       9.68      18.79      11.87
O       5.83       8.91      11.63
C       8.56      18.20      11.97
O       8.11       8.98      11.49
C       6.95       9.51      11.53
O       7.40      18.72      12.02
C       6.93      10.95      11.47
C       8.58      16.76      12.03
C       7.18      13.54      11.52
C       8.33      14.16      11.98
C       8.49      15.54      12.02
C       7.02      12.16      11.48
