18

N      -0.15       4.22       1.95
N      -0.99       3.22       0.13
O      -3.38      10.40       0.12
O      -4.15       9.27      -1.68
F      -1.82       9.00       1.82
H      -0.80       6.70       2.22
H      -3.54       7.05      -1.88
H      -2.46       4.87      -1.31
C      -0.91       4.37       0.85
C      -1.55       5.63       0.49
C      -1.40       6.75       1.32
C      -2.01       7.95       0.98
C      -2.80       8.09      -0.17
C      -2.94       6.95      -0.98
C      -2.34       5.74      -0.67
C      -3.48       9.36      -0.58
N      -0.26       2.35       0.81
N       0.23       2.95       1.89
