27

O      -0.31       9.30      26.15
O      -1.21       7.23      26.24
O       2.22       7.70      15.28
H       2.61       8.55      17.51
H       2.21       8.82      19.94
H       0.26      10.02      23.92
O       0.94       5.84      15.24
H      -0.58       5.69      17.27
H      -0.12       5.54      21.80
H      -0.60       5.82      24.22
H      -1.06       6.02      19.69
C       1.03       7.12      17.24
C       1.81       8.01      18.00
C       1.57       8.16      19.36
C       0.53       7.45      19.99
C      -0.24       6.56      19.22
C       0.01       6.39      17.86
C      -0.06       6.53      22.25
C      -0.31       6.68      23.61
C       0.17       9.04      23.45
C       0.37       8.90      22.07
C       0.28       7.63      21.44
C      -0.18       7.93      24.22
C       1.40       6.88      15.82
C      -0.57       8.15      25.64
C       0.58      10.10      21.31
N       0.71      11.10      20.73
