24

H       2.89       4.72       6.86
H       2.76       2.31       6.86
H       7.09       2.22       6.86
H       7.05       4.66       6.86
H       1.88      -2.23       6.86
H       6.21      -2.32       6.86
H       6.07      -4.72       6.86
H       1.91      -4.66       6.86
C       3.81       4.13       6.86
C       3.75       2.75       6.86
C       4.92       1.96       6.86
C       6.12       2.71       6.86
C       6.12       4.10       6.86
C       4.98       0.47       6.86
C       3.98      -0.48       6.86
C       2.84      -2.71       6.86
C       4.04      -1.97       6.86
C       5.22      -2.75       6.86
C       5.15      -4.14       6.86
C       2.85      -4.10       6.86
N       4.97       4.81       6.86
N       3.99      -4.82       6.86
Cl       6.63      -0.10       6.86
Cl       2.34       0.10       6.86
