24

H       5.21       5.79       3.44
H       7.49       6.80       3.59
S       6.16       3.73       3.14
H       8.01       5.31       4.40
N       6.05       5.25       3.69
H       4.95       3.50       0.54
H       5.92       3.66      -1.76
H       9.82       4.33      -0.08
O       5.65       6.51       6.08
H       8.86       4.21       2.21
O       7.79       7.13       6.26
O       4.81       3.23       3.02
O       7.15       3.04       3.96
O       7.72       4.11      -3.43
O       9.80       4.00      -2.54
C       6.82       6.59       5.62
C       7.16       5.99       4.26
C       6.84       3.84       1.50
C       6.01       3.70       0.39
C       6.56       3.79      -0.89
C       7.93       4.01      -1.06
C       8.75       4.16       0.06
C       8.21       4.09       1.34
C       8.54       4.04      -2.43
