51

C      22.70      21.36      29.35
C      22.04      23.18      30.56
C      20.89      22.58      28.69
H      16.54      23.03      23.59
H      15.01      19.26      25.06
C      25.56      17.65      30.90
C      25.10      18.45      29.90
C      24.29      19.61      30.11
C      23.59      20.23      29.13
H      22.51      28.15      34.99
H      18.48      27.06      36.16
H      27.61      16.86      28.84
C      18.09      22.00      26.17
C      19.24      21.82      27.01
C      19.76      22.80      27.79
C      17.41      20.97      25.60
H      25.91      15.09      32.42
C      20.35      26.33      33.94
C      21.40      25.71      33.33
C      21.25      24.87      32.18
C      22.23      24.05      31.71
H      25.31      18.17      28.86
H      24.19      20.00      31.13
H      25.27      17.89      31.93
H      23.59      19.83      28.11
N      14.33      20.67      23.64
N      14.82      21.87      23.17
H      17.72      23.02      26.02
H      19.70      20.83      27.04
H      17.73      19.95      25.83
H      19.30      23.78      27.84
N      19.97      28.34      36.97
N      21.24      28.69      36.59
N      27.34      14.46      30.99
N      27.88      15.02      29.86
H      22.40      25.82      33.75
H      20.29      24.85      31.67
H      19.34      26.14      33.56
H      23.19      23.97      32.21
N      22.91      22.15      30.43
N      21.02      23.44      29.71
N      21.72      21.53      28.44
C      16.27      21.10      24.72
C      15.20      20.20      24.55
C      15.97      22.14      23.82
C      21.55      28.01      35.47
C      20.46      27.21      35.08
C      19.48      27.47      36.06
C      27.31      16.23      29.67
C      26.39      16.49      30.71
C      26.46      15.34      31.51
