36

H      14.20       6.63      12.86
H      13.87       8.83      24.29
H      14.91       6.63      15.27
H      13.16       8.93      21.89
H      11.24       8.62      16.33
H      16.54       6.47      20.83
C      11.97       7.60      11.79
C      15.97       7.61      25.36
C      13.56       7.06      13.63
C      14.44       8.32      23.52
C      13.96       7.06      14.96
C      14.05       8.37      22.19
C      13.13       7.64      15.94
C      14.80       7.71      21.20
C      11.89       8.18      15.58
C      15.95       6.99      21.58
C      11.52       8.17      14.24
C      16.30       6.93      22.92
C      12.35       7.63      13.24
C      15.57       7.60      23.91
C      14.38       7.75      19.80
C      13.59       7.71      17.34
N      12.84       8.38      18.23
N      15.20       7.17      18.88
N      13.24       8.40      19.49
N      14.79       7.15      17.63
N      10.25       8.83      13.88
N      17.45       6.07      23.27
O      12.93       7.77      10.97
O      15.00       7.55      26.18
O      10.75       7.40      11.51
O      17.21       7.72      25.63
O       9.22       8.37      14.39
O      10.32       9.81      13.12
O      18.49       6.22      22.63
O      17.26       5.22      24.15
