36

N       5.33      10.20      13.11
N       5.26      17.14      13.07
H       3.80      10.21      11.72
H       6.83      10.24      14.52
H       6.86      17.13      14.37
H       3.66      17.08      11.77
O       2.54      15.50       9.55
O       1.31      15.54      11.42
O       1.58      11.25      11.37
O       2.05      12.55       9.61
O       7.66      16.08      16.48
H       9.46      13.20      15.39
O       9.22      12.34      15.84
O       7.33      11.38      16.56
O       9.29      14.96      15.47
H       1.83      11.15      12.31
H       3.28      14.99       9.15
H       6.69      16.09      16.55
C       4.42      10.84      12.36
C       4.29      12.24      12.38
C       3.33      12.96      11.59
C       6.15      10.85      13.93
C       6.15      12.26      14.02
C       7.06      12.99      14.86
C       6.14      16.49      13.85
C       6.15      15.10      13.97
C       7.07      14.37      14.82
C       4.35      16.47      12.35
C       4.29      15.07      12.35
C       3.34      14.33      11.55
C       5.21      12.96      13.20
C       5.21      14.37      13.18
C       2.29      15.14      10.82
C       2.28      12.24      10.76
C       8.09      15.15      15.61
C       7.89      12.18      15.84
