36

N       5.88      15.74       4.21
N      10.75      16.03       3.01
N       5.76      20.14       3.22
N      10.67      20.02       4.31
O       9.58      11.08       3.31
O       7.31      11.07       3.13
O       7.20      24.95       3.77
O       9.47      24.88       3.64
H      10.53      13.41       3.01
H       6.29      13.20       3.77
H      10.40      22.62       4.11
H       6.15      22.71       3.43
C       8.44      11.64       3.26
C       8.32      24.34       3.73
O       5.92      16.76       4.92
O       4.85      15.16       3.83
O      10.65      17.09       2.39
O      11.80      15.51       3.41
O       5.79      19.08       2.59
O       4.74      20.73       3.61
O      10.60      19.01       5.02
O      11.71      20.51       3.84
C       8.41      13.14       3.36
C       9.58      13.90       3.21
C       9.50      15.28       3.28
C       8.31      15.97       3.59
C       7.17      15.15       3.80
C       7.21      13.78       3.65
C       8.25      17.37       3.67
C       8.21      18.59       3.72
C       8.22      19.99       3.76
C       9.41      20.73       4.00
C       9.45      22.11       3.97
C       8.28      22.84       3.77
C       7.07      22.16       3.58
C       7.06      20.78       3.54
