32

F       5.80      -4.99      12.01
F       7.79      -0.54       9.70
H       7.51      -4.75       9.58
H       0.86      -1.28       8.86
H      12.61      -5.53      10.53
H       7.62      -2.94      13.16
H       5.97      -2.59       8.54
H       6.09      -0.79      12.13
C       6.41      -1.67      11.56
C       7.18      -3.87      10.13
C       7.26      -2.86      12.13
C       6.35      -2.68       9.56
C      10.74      -3.19      10.35
C       2.81      -2.81      10.53
C       7.29      -1.67      10.28
C       6.31      -3.86      11.42
C       8.19      -2.85      10.84
C       5.41      -2.69      10.85
C       0.63      -2.23       9.35
C      12.76      -4.68       9.87
C       9.59      -2.98      10.70
C       4.00      -2.69      10.77
C       1.47      -3.00      10.18
C      11.99      -3.50       9.78
C       0.63      -4.09      10.50
C      12.67      -2.78       8.77
N      13.71      -3.47       8.29
N      -0.56      -2.82       9.19
N      13.76      -4.65       8.98
N      -0.57      -3.99       9.92
F       0.91      -5.14      11.27
F      12.36      -1.58       8.27
