16

O      10.42      13.96       6.27
O       5.71      11.03       1.93
C       9.53      12.19       4.96
C       7.70      10.95       3.20
C       8.40      12.89       4.49
C       8.82      10.24       3.65
C       7.50      12.27       3.62
C       9.71      10.86       4.52
C       6.71      10.32       2.26
O       6.96       9.13       1.89
Br       7.94      14.68       4.94
C      10.56      12.75       5.89
H       8.98       9.22       3.32
H       6.63      12.81       3.26
H      10.59      10.33       4.89
O      11.51      11.97       6.24
