16

H       3.06       1.65       7.59
H       7.31       1.78       6.94
H       3.16      -0.86       7.60
O       6.42      -3.02       7.35
O       6.29       3.94       7.27
O       4.00       3.91       7.29
C       5.28      -2.45       7.31
C       5.27      -0.96       7.29
C       5.15       3.36       7.27
F       7.65      -0.75       6.90
C       5.17       1.87       7.27
C       6.43      -0.18       7.10
C       4.00       1.12       7.45
C       6.40       1.21       7.09
C       4.06      -0.27       7.46
O       4.13      -3.01       7.29
