20

C       4.42       7.47       6.84
C       3.04       6.89       9.25
C       5.12       7.22       8.04
C       2.34       7.10       8.04
H       2.49       7.58       5.92
C       3.03       7.40       6.85
C       4.43       6.93       9.22
C       0.92       6.99       7.93
C       6.54       7.22       8.13
H       4.97       6.74      10.15
C       5.05       7.82       5.52
C       2.39       6.64      10.58
N      -0.21       6.88       7.74
N       7.68       7.17       8.31
H       6.77       8.10       4.72
H       0.68       6.73      11.44
O       4.41       8.02       4.50
O       6.40       7.87       5.60
O       3.02       6.31      11.57
O       1.06       6.87      10.54
