25

H      10.81      -0.14      10.66
H      18.22      -3.57      10.38
H      16.79      -5.15      11.70
H      14.39      -4.51      12.17
N      16.73      -2.18      10.12
H      10.12      -2.20      12.04
N      15.91       0.20       9.12
H      12.28       1.52       9.55
N      12.16      -2.84      11.86
N      11.47      -0.86      11.04
H      14.00       2.86       8.32
H      16.32       1.92       8.08
C      17.18      -3.34      10.59
C      16.37      -4.22      11.33
C      15.05      -3.87      11.58
C      14.56      -2.65      11.08
C      15.44      -1.82      10.35
C      13.21      -2.19      11.25
C      12.80      -0.96      10.73
C      11.13      -2.01      11.70
C      13.66      -0.08      10.01
C      13.30       1.16       9.46
C      14.25       1.90       8.77
C      15.55       1.38       8.62
C      15.00      -0.53       9.82
