22

H       4.46      16.64       3.82
H       6.09      11.14       5.63
H       3.33      15.32       4.16
H       5.87      12.52       6.71
H       7.06      15.51       0.73
H       3.72      15.75       2.47
H       9.10      12.00       2.84
C       5.27      14.69       3.53
H       7.51      12.00       6.26
H       5.77      16.47       1.49
C       6.43      13.04       4.71
H       8.36      11.13       4.21
C       4.13      15.65       3.48
H       5.37      14.99       0.58
C       6.49      12.13       5.89
H       9.35      12.59       4.49
N       7.29      13.79       2.62
N       5.39      13.88       4.61
C       6.10      15.45       1.27
C       8.61      12.13       3.81
C       6.23      14.63       2.50
C       7.41      13.00       3.70
