31

C       5.22       4.66       5.85
C       6.22       3.82       6.39
C       6.18       4.49       3.65
H       4.24       2.94      10.53
H       7.92       3.25       3.47
H       4.14       3.32       8.07
H       4.50       5.11       6.53
H       4.41       5.64       4.10
H       8.39       3.98       8.01
H       8.48       3.60      10.47
C       6.23       4.98       2.25
C       7.68       1.13       6.71
N       8.10       2.29       5.91
H       8.70       2.02       5.14
H       8.40       0.32       6.54
O       5.35       2.48      12.67
H       6.68       0.77       6.41
H       7.66       1.35       7.78
O       7.60       2.37      12.49
O       5.12       5.33       1.71
O       7.37       5.09       1.67
C       6.44       2.68      12.03
C       6.37       3.21      10.65
C       5.14       3.19       9.97
C       5.09       3.40       8.60
C       6.26       3.65       7.86
C       7.48       3.76       8.56
C       7.53       3.54       9.94
C       7.17       3.24       5.50
C       7.16       3.64       4.15
C       5.17       4.98       4.50
