14

O       4.95       5.31       7.64
O       7.17       5.78       7.54
H       8.28       5.39      12.27
O       5.45       6.38      14.80
O       7.61       5.70      14.61
H       8.19       5.80       9.81
H       5.40       6.48      12.26
H       5.17       5.28      10.14
C       6.09       5.53       8.17
C       6.35       6.10      12.65
C       7.25       5.68      10.36
C       6.13       5.49       9.65
C       6.49       6.06      14.12
C       7.33       5.70      11.81
