32

O       0.43      10.45       1.37
O       2.68      10.50       1.37
H      -0.42       8.54       2.60
H      -0.48       6.85       4.44
H       3.61       7.81       5.40
H      -0.59       4.84       8.42
H       3.31       1.95       9.43
H       3.49       3.67       7.62
H       4.03      10.19       2.72
H       4.75       9.41       4.11
H      -1.16       2.23      10.85
H      -1.86       3.56       9.95
C       1.32       1.47      11.08
C       1.57      10.09       1.83
C       1.61       9.13       2.95
C       0.45       8.37       3.23
C       0.41       7.44       4.25
C       1.57       7.23       5.04
C       2.72       7.97       4.78
C       2.78       8.92       3.74
C       1.56       6.25       6.07
C       1.53       5.39       6.93
C       1.46       4.39       7.93
C       0.27       4.20       8.65
C       0.15       3.22       9.65
C       1.30       2.43       9.96
C       2.47       2.61       9.21
C       2.58       3.56       8.21
N       3.93       9.63       3.56
N      -1.04       3.08      10.31
O       0.21       1.13      11.63
O       2.47       1.03      11.45
