24

C      13.22       6.57      12.73
C      16.13       8.23      13.57
H      14.80       6.17      11.71
C      13.23       7.55      14.96
C      11.81       6.61      12.78
H      14.56       4.80      14.35
H      14.81       7.90      15.98
C      11.82       7.56      14.90
C      16.13       5.86      14.11
C      13.94       7.05      13.85
C      15.42       7.04      13.85
C      17.54       8.17      13.56
H      14.55       9.29      13.34
N      11.15       7.09      13.84
N      18.20       7.05      13.84
C      17.54       5.92      14.12
Cl      10.95       6.04      11.43
Cl      18.41       9.58      13.15
Cl      10.96       8.17      16.24
Cl      18.42       4.51      14.49
O      13.83       6.09      11.62
O      15.52       9.41      13.31
O      13.84       8.02      16.07
O      15.53       4.68      14.37
