28

C       5.22      12.89       2.42
H       9.35      20.27      11.72
H      12.29      20.45       8.56
C      11.64      20.64       9.41
H       2.78      14.23       4.17
C       3.47      13.75       3.48
C      10.66      19.80       9.96
H      10.50      16.36       6.66
H       5.81      15.32       7.96
C       4.87      13.63       3.58
H       9.06      15.02       5.14
H       7.25      16.65       9.48
C       8.67      15.38       6.10
C       7.64      16.29       8.53
C       8.96      16.64       8.16
N      10.75      21.74      11.09
H       6.20      12.58       2.10
C      10.14      20.54      11.02
N      11.69      21.80      10.09
C       7.32      15.12       6.42
N       3.03      13.14       2.36
C       9.47      16.13       6.95
C       9.68      17.60       8.91
N       4.12      12.61       1.71
C       6.84      15.55       7.68
C       6.46      14.52       5.47
C      10.19      18.57       9.45
C       5.72      14.11       4.59
