26

O      34.43      20.67       2.44
O      33.55      19.66       0.59
O      25.46      15.35       7.19
O      26.80      15.70       9.01
H      31.76      18.05       1.12
H      30.04      16.97       2.56
H      31.36      19.36       5.89
H      33.11      20.38       4.45
H      30.82      17.39       6.95
H      29.06      16.42       8.42
H      26.31      16.35       5.13
H      28.03      17.38       3.66
C      33.59      19.91       1.84
C      32.54      19.28       2.70
C      31.66      18.33       2.17
C      30.70      17.73       2.98
C      30.58      18.08       4.33
C      31.46      19.05       4.85
C      32.43      19.63       4.05
C      29.55      17.46       5.20
C      29.82      17.19       6.55
C      28.85      16.64       7.38
C      27.58      16.33       6.87
C      27.30      16.59       5.52
C      28.27      17.15       4.69
C      26.53      15.75       7.76
