38

H      10.52       7.15      12.58
H       7.77       7.27      17.41
H       6.65       8.14      15.49
H      11.97       8.13      18.96
H       7.99       6.56      19.52
H      10.60       6.48      14.96
H       8.12       7.21      21.90
H      11.87       9.76      23.05
H       6.86       9.86      11.44
H      10.83       7.25      17.06
C       8.75       8.49      11.26
C       9.96       8.41      23.25
C       8.59       8.05      12.68
C      10.09       8.03      21.80
C       9.69       7.38      13.24
C       8.96       7.40      21.24
C       9.73       7.01      14.57
C       8.89       7.05      19.90
C       8.66       7.33      15.43
C       9.95       7.35      19.04
C       7.51       7.91      14.86
C      11.11       7.91      19.60
C       7.46       8.27      13.52
C      11.19       8.25      20.94
C       8.73       7.20      16.88
C       9.88       7.21      17.59
S      12.82       8.87      21.42
S       5.86       8.94      13.00
O      13.50       9.33      20.24
O      12.50      10.13      22.30
O       5.25       7.98      12.12
O       5.16       9.37      14.18
O       6.26      10.24      12.20
O       7.76       9.01      10.61
O      10.93       9.00      23.86
O       9.89       8.32      10.74
O       8.87       8.12      23.82
O      13.43       7.83      22.23
