10

H       9.84      10.36       2.36
H       8.56      11.78       4.79
O       8.35      11.67       0.82
O       7.42      12.61       2.68
O      10.06      10.47       6.33
O      10.96       9.52       4.46
C       8.24      11.84       2.08
C       9.18      11.03       2.90
C       9.22      11.11       4.24
C      10.16      10.30       5.06
