26

H       4.27       4.85      14.25
H       3.91       8.85      16.19
H       5.75       4.96      16.05
H       5.31       9.03      14.34
C       4.54       5.77      13.73
C       4.37       8.01      16.70
C       5.37       5.81      16.63
C       5.10       8.12      13.78
C       4.64       5.77      12.34
H       4.46       4.87      11.76
C       4.51       8.02      18.09
C       5.19       8.13      12.39
C       4.99       6.95      11.66
H       4.17       8.87      18.68
C       4.79       6.93      14.47
C       4.82       6.91      15.95
C       5.08       6.93      18.75
C       5.50       5.82      18.01
O       4.99       5.83       9.57
O       5.03       8.07      20.83
O       5.61       5.87      20.80
O       5.49       8.04       9.62
H       5.94       4.98      18.55
H       5.46       9.03      11.84
C       5.17       6.94      10.17
C       5.25       6.96      20.24
