46

O       3.52      15.96      10.19
O       5.97      14.86      10.39
H       7.23       3.70      16.33
O       7.78       1.57      17.37
H       5.78       5.57      15.53
O       6.16       0.73      18.66
H       9.29       3.77      17.55
O      10.58       1.81      18.62
H      11.01       8.19      13.54
H       9.65      10.06      12.55
H       3.85      11.67      14.01
H       2.45      13.48      12.98
H       7.19      12.90      11.59
H       5.87      10.51      15.49
H       5.12       9.39      17.55
H       6.43       7.47      18.48
H       8.49       6.72      17.34
C       6.59       1.63      17.83
C       5.67       2.70      17.43
C       6.17       3.74      16.60
C       5.38       4.77      16.14
C      10.88       4.77      16.49
C      10.35       3.76      17.30
C      11.15       2.72      17.81
C       9.59       7.76      15.07
C      10.05       8.48      13.97
C       9.31       9.52      13.43
C       8.08       9.91      13.99
C       5.59      12.18      12.85
C       4.25      12.35      13.26
C       3.49      13.34      12.69
C       4.02      14.20      11.71
C       3.10      15.21      11.15
C       5.39      14.06      11.30
C       6.16      13.03      11.90
C       7.61       9.26      15.20
C       6.45       9.68      15.90
C       6.02       9.04      17.05
C       6.76       7.97      17.57
C       7.91       7.55      16.94
C       8.37       8.16      15.74
N       9.94       5.74      16.09
N      10.44       6.71      15.43
N       7.47      10.96      13.30
N       6.22      11.09      13.48
O       1.92      15.33      11.60
