30

O       7.86      10.27       8.41
O       7.81       8.00       8.54
O      14.75       7.74       8.48
O      14.83      10.00       8.72
O      13.14      14.05      11.71
O      12.53      12.72      13.69
O      14.48      12.07      12.26
O       9.60      12.21      13.69
O      10.30      14.11      12.31
O       8.29      12.78      11.69
H      13.81      10.68      10.56
H       8.87      10.94      10.38
H      10.01       7.42       7.35
H      12.51       7.31       7.41
H      13.96      14.09      11.17
H       8.80      11.65      13.76
C       8.40       9.12       8.55
C      14.22       8.88       8.66
C      12.72       8.93       8.78
C      12.04       9.88       9.60
C      11.98       8.05       8.01
C      12.73      10.74      10.51
C      12.07      11.63      11.32
C       9.89       9.07       8.70
C      10.58       8.11       7.97
C      10.61       9.95       9.56
C       9.95      10.88      10.41
C      10.64      11.71      11.27
S      13.14      12.58      12.41
S       9.63      12.85      12.21
