29

H       1.47       6.41       1.99
H       1.03       4.22       1.50
H       3.21       1.14       3.54
H       4.23       5.27       4.21
H      -0.41      10.37       1.58
H       0.33       8.16       2.45
H       4.41       9.54       2.08
H       3.48      11.72       1.18
N       2.30       6.27       2.56
N       1.51      11.10       1.34
C       2.59       4.92       2.85
C       1.82       3.94       2.20
O       1.61       0.36       1.74
C       2.05       2.59       2.43
O       4.71       1.78       5.68
O       5.93       3.54       4.94
C       3.04       2.19       3.34
C       3.81       3.17       3.98
C       3.61       4.53       3.73
C       3.05       7.38       2.82
C       1.08       8.90       2.16
C       2.45       8.66       2.30
C       3.34       9.70       1.96
C       1.26       1.58       1.65
C       4.90       2.79       4.94
C       0.65      10.13       1.68
C       2.83      10.89       1.48
O       4.14       7.38       3.40
O       0.33       2.05       0.92
