25

H      -1.76       2.23       9.56
H      -0.12       2.24      17.36
H      -1.65       3.23      11.85
H      -0.23       3.24      15.08
H      -0.91       7.06       9.94
H      -0.98       7.06      16.98
H      -1.06       5.89       7.75
H      -0.82       5.90      19.17
C      -1.58       3.29       9.70
C      -0.30       3.30      17.22
C      -1.51       3.85      10.97
C      -0.37       3.86      15.96
C      -1.24       5.23      11.08
C      -0.65       5.23      15.84
C      -1.10       5.99       9.91
C      -0.78       5.99      17.01
C      -1.19       5.34       8.68
C      -0.69       5.34      18.24
C      -1.08       5.82      12.40
C      -0.81       5.83      14.53
N      -1.41       4.01       8.58
N      -0.47       4.02      18.35
N      -1.03       7.08      12.77
N      -0.86       7.08      14.15
O      -0.94       4.97      13.46
