52

H       3.64      -5.75      16.46
H       0.79      -2.57      21.96
H       3.49       0.09      20.36
H       0.95      -3.04      14.96
H       3.49      -0.07      13.25
H       0.95       3.05      18.65
H       3.65       5.76      17.16
H       0.79       2.58      11.65
C       2.22       5.52      13.62
C       2.22      -5.51      19.99
C       2.22      -4.20      19.23
C       2.16      -4.18      17.83
C       2.31      -2.97      17.13
C       2.22      -1.74      17.82
C       2.13      -1.76      19.23
C       2.28      -2.97      19.92
C       2.22      -0.52      17.11
C       2.22       0.53      16.50
C       2.22       1.75      15.80
C       2.13       1.77      14.39
C       2.28       2.98      13.69
C       2.22       4.20      14.38
C       2.16       4.19      15.79
C       2.31       2.98      16.49
C       1.80      -5.38      16.99
C       2.64      -2.84      21.38
C       1.68      -0.51      19.94
C       2.76      -2.96      15.69
C       1.68       0.52      13.68
C       2.76       2.97      17.93
C       1.80       5.39      16.63
C       2.64       2.85      12.24
O       3.26       5.77      12.94
O       1.18       6.24      13.74
O       3.26      -5.76      20.67
O       1.18      -6.23      19.87
O       2.68      -5.93      16.19
O       0.62      -5.74      16.99
O       1.75      -2.43      22.25
O       3.81      -3.03      21.70
O       2.51       0.30      20.54
O       0.47      -0.30      19.92
O       1.93      -3.07      14.69
O       3.97      -2.84      15.52
O       2.51      -0.29      13.08
O       0.47       0.31      13.70
O       1.93       3.09      18.93
O       3.97       2.85      18.10
O       2.69       5.93      17.42
O       0.63       5.75      16.63
O       1.75       2.43      11.36
O       3.81       3.04      11.92
