26

C      19.80      15.39       8.75
C      19.79      16.38       7.78
C      19.71      19.20       6.29
C      18.30      19.21       6.80
C      21.79      16.36       9.73
C      21.80      17.34       8.73
C      21.88      18.83       5.92
C      23.29      18.32       5.91
C      20.79      14.33      10.79
C      20.79      15.38       9.74
C      20.79      17.37       7.74
C      20.80      18.40       6.71
H      19.04      14.61       8.77
H      19.01      16.38       7.01
N      21.46      19.80       5.08
H      17.93      20.23       6.92
H      18.25      18.71       7.78
N      20.13      20.04       5.32
H      17.62      18.68       6.12
H      22.55      16.36      10.51
H      22.57      18.10       8.73
H      23.67      18.21       4.89
H      23.97      19.01       6.44
H      23.34      17.34       6.41
O      20.06      13.30      10.60
O      21.53      14.51      11.82
