32

H      13.58      10.25       8.12
H      16.06      10.26       7.74
H      20.07       7.92       7.78
H      19.68      11.38      10.29
H      22.54       7.91       8.20
H      16.43       6.79      10.24
H      21.39      12.37      11.34
H      14.67       5.79      11.28
C      23.98       9.46       9.75
C      12.13       8.71       9.69
C      22.50       9.60       9.53
C      13.62       8.58       9.46
C      21.90       8.66       8.66
C      14.22       9.51       8.59
C      20.53       8.67       8.42
C      15.59       9.51       8.37
C      19.73       9.65       9.03
C      16.39       8.53       8.99
C      20.32      10.63       9.83
C      15.79       7.54       9.77
C      21.69      10.60      10.12
C      14.42       7.58      10.06
C      22.16      11.59      11.12
C      13.95       6.63      11.09
N      18.32       9.67       8.97
N      17.80       8.51       8.95
O      12.92       6.73      11.74
O      24.71      10.46       9.47
O      11.41       7.70       9.44
O      24.36       8.30      10.11
O      11.75       9.86      10.04
O      23.23      11.59      11.71
