29

C       5.11       2.38       4.91
C       4.58       2.10       3.64
C       5.44       1.57       2.65
C       3.16       2.45       3.27
C       2.14       1.30       3.36
C       0.73       1.80       3.04
O       4.60       4.12       6.41
H       7.58       1.73       7.01
C       6.81       1.31       2.83
C       7.28       1.64       4.10
C       8.53       1.67       4.94
C       7.63       2.30       6.08
O       8.76       0.17       2.25
O       3.25       2.30       6.41
O       7.51       1.06       0.57
H       9.01       0.71       5.17
F       9.54       2.53       4.48
F       7.99       3.61       6.42
C       7.74       0.81       1.79
F       4.88       1.31       1.44
H       0.42       2.58       3.75
H       0.68       2.23       2.03
H      -0.00       0.98       3.09
H       2.43       0.50       2.67
H       2.18       0.88       4.38
H       2.81       3.27       3.93
H       3.15       2.85       2.24
C       4.26       2.98       5.99
C       6.48       2.18       5.10
