18

H      24.01      15.96      12.44
H      30.00      18.05      11.76
C      26.97      15.13      13.38
C      25.89      15.80      12.81
C      28.14      18.26      11.40
O      28.15      13.46      14.49
C      27.06      18.93      10.83
O      25.86      13.44      14.54
O      24.61      15.39      12.96
C      26.32      16.94      12.08
C      27.71      17.11      12.11
O      29.42      18.67      11.28
C      26.98      13.93      14.19
S      28.51      15.89      13.02
S      25.52      18.17      11.16
C      27.05      20.16      10.03
O      25.91      20.53       9.57
O      28.17      20.75       9.87
