16

O      21.39       5.47       9.61
O      23.82      -0.09       5.55
H      24.72       3.80       8.27
H      20.48       1.59       6.86
H      24.77       1.70       6.88
C      23.80       3.30       7.96
C      21.40       2.08       7.18
C      23.83       2.15       7.19
C      21.37       3.24       7.95
C      22.53       5.10       9.17
C      22.67       0.31       5.93
C      22.63       1.53       6.79
C      22.57       3.85       8.34
H      20.43       3.68       8.26
O      23.64       5.69       9.36
O      21.55      -0.23       5.65
