24

C      10.11      13.10       1.07
C       8.73      13.27       1.09
C       7.97      13.24      -0.09
C      10.81      12.88      -0.13
C       8.66      12.92      -1.28
C      10.04      12.74      -1.30
C       5.77      14.00      -1.21
C      13.11      13.03      -1.29
H      10.67      13.20       2.01
H       8.24      13.49       2.04
C       5.81      14.12       0.99
H       8.10      12.84      -2.22
C      13.18      12.90       0.90
H      10.53      12.52      -2.25
H       5.95      13.85      -2.27
H      12.85      13.08      -2.35
H       6.01      14.06       2.05
H      12.99      12.81       1.97
N       4.63      14.60      -0.80
N      14.40      13.11      -0.91
N       4.66      14.67       0.56
N      14.44      13.03       0.46
C       6.57      13.68      -0.10
C      12.27      12.89      -0.17
