44

H       0.00      16.44       8.64
H       0.00      23.18      11.17
H       0.00      23.18       8.64
H       0.00      16.44      11.17
H      -2.08      19.81       2.26
H      -2.16      19.81       4.76
H      -2.08      19.81      17.55
H      -2.16      19.81      15.05
H       2.08      19.81       2.26
H       2.16      19.81       4.76
H       2.08      19.81      17.55
H       2.16      19.81      15.05
C       0.00      18.55       7.02
C       0.00      18.58       8.50
C       0.00      17.38       9.20
C       0.00      21.07      12.79
C       0.00      21.05      11.31
C       0.00      22.25      10.61
C       0.00      21.07       7.02
C       0.00      21.05       8.50
C       0.00      22.25       9.20
C       0.00      18.55      12.79
C       0.00      18.58      11.31
C       0.00      17.38      10.61
C       0.00      19.81       4.94
C       0.00      19.81       9.19
C       0.00      19.81      14.87
C       0.00      19.81      10.62
C      -1.16      19.81       2.85
C      -1.20      19.81       4.24
C      -1.16      19.81      16.96
C      -1.20      19.81      15.57
C       1.16      19.81       2.85
C       1.20      19.81       4.24
C       1.16      19.81      16.96
C       1.20      19.81      15.57
N       0.00      19.81       2.16
N       0.00      19.81       6.38
N       0.00      19.81      17.65
N       0.00      19.81      13.43
O       0.00      17.52       6.36
O       0.00      22.11      13.45
O       0.00      22.11       6.36
O       0.00      17.52      13.45
