22

O       9.30      -2.37      14.27
O       9.53      -3.72      12.45
O       9.50       1.98       8.41
O       9.06       3.24      10.25
H      10.26      -0.18      13.52
H      10.20       1.86      12.07
H       7.74       0.53       8.16
H       6.52      -1.49       7.48
H       6.54      -3.52       8.95
H       7.78      -3.50      11.07
C       9.34      -2.59      13.01
C       9.19      -1.40      12.12
C       9.76      -0.21      12.55
C       9.74       0.93      11.73
C       9.14       0.89      10.48
C       9.23       2.13       9.65
C       8.48      -0.30      10.02
C       7.76      -0.35       8.80
C       7.08      -1.48       8.42
C       7.09      -2.62       9.25
C       7.78      -2.62      10.44
C       8.50      -1.47      10.87
