24

O       4.37       9.90       7.13
O       2.07       6.49       5.61
O       5.82       9.15       4.98
O       1.18       5.05       7.11
H       0.43       7.48       7.96
O       7.23      10.90       5.24
H       1.88       6.83       8.78
H       4.93      11.65       9.14
H       1.82      10.16      11.73
H       3.68      11.77      11.27
H       1.09       8.60       9.95
H       6.29      10.44       7.73
H       5.37      11.70       6.84
C       2.60       9.23       8.54
C       3.72      10.07       8.33
C       1.50       7.24       7.84
C       4.08      10.98       9.31
C       1.62       6.19       6.75
C       6.24      10.17       5.60
C       2.34      10.15      10.77
C       3.39      11.03      10.52
C       1.93       9.26       9.77
C       5.59      10.62       6.90
O       2.24       8.42       7.50
