28

H      -1.38      15.82       2.85
H      -5.62      16.17       2.21
H      -1.45      23.95       7.61
H      -5.55      24.59       6.44
O      -2.43      26.02       8.43
O      -4.57      26.40       7.73
O      -4.63      14.08       1.40
O      -2.36      14.01       1.54
C      -3.50      25.71       7.80
C      -3.50      14.55       1.75
C      -3.50      15.87       2.46
C      -2.30      16.38       2.97
C      -2.31      17.60       3.64
C      -3.50      18.36       3.81
C      -4.69      17.80       3.27
C      -4.70      16.58       2.61
C      -3.50      19.59       4.48
C      -3.50      20.67       5.07
C      -3.50      21.91       5.74
C      -2.35      22.39       6.41
C      -2.34      23.61       7.08
C      -3.50      24.40       7.09
C      -4.66      23.96       6.43
C      -4.65      22.74       5.78
Br      -6.32      18.73       3.44
Br      -0.67      18.25       4.33
Br      -6.24      22.18       4.92
Br      -0.76      21.37       6.42
