43

H       5.81      11.66      13.78
H       5.06      15.81      12.80
C       4.31      16.47      19.65
C       3.48      16.84      18.63
N       5.77      14.14      11.71
N       6.01      12.82      12.02
C       3.60      16.75      20.85
C       2.39      17.29      20.50
H       4.61      21.45      17.63
H       2.43      22.15      13.95
N       3.56      23.38      15.26
N       4.25      23.15      16.43
H       1.27      16.57      23.16
H       0.23      19.32      19.98
H       4.45      12.23      16.32
H       3.41      13.91      18.22
N      -0.28      17.99      22.88
N       3.57      16.69      17.24
N      -0.62      18.85      21.86
O       4.47      15.42      15.50
H       1.81      19.41      13.90
H       1.90      16.81      14.80
O       3.55      18.97      16.67
O       2.30      17.34      19.12
H       3.96      16.61      21.87
H       5.31      16.05      19.54
C       5.70      12.63      13.32
C       5.24      13.84      13.87
C       5.32      14.76      12.81
C       4.14      21.85      16.74
C       3.37      21.19      15.77
C       3.02      22.21      14.86
C       0.84      17.33      22.51
C       1.25      17.76      21.24
C       0.30      18.73      20.88
C       4.74      14.09      15.20
C       4.37      13.31      16.26
C       3.81      14.17      17.26
C       3.90      15.44      16.74
C       3.04      19.79      15.68
C       2.32      19.04      14.79
C       2.36      17.69      15.25
C       3.12      17.70      16.39
