15

C       8.62      -2.31      11.24
C       8.60      -1.69       9.88
C       8.83      -2.47       8.74
C       8.77      -1.84       7.50
C       8.40       0.20       8.44
C       8.35      -0.33       9.73
N       8.58      -0.53       7.33
C       8.30       1.70       8.24
H       9.03      -3.54       8.82
H       8.90      -2.43       6.58
H       8.16       0.31      10.60
O       9.74      -2.78      11.64
O       7.51      -2.31      11.88
O       7.14       2.21       8.16
O       9.43       2.29       8.18
