36

H       2.05       2.90       4.29
H       1.79       0.75       5.55
H       2.04       2.89       9.27
H       2.04      -2.89       6.67
H       1.79      -0.75      10.39
H       2.05      -2.90      11.64
H       4.43       6.34       7.91
H       4.43      -6.34       8.03
C       2.29      -5.36      10.67
C       2.29       5.36       5.27
C       2.15       4.11       6.08
C       2.02       2.89       5.38
C       1.87       1.70       6.07
C       1.86       1.70       7.48
C       1.99       2.91       8.18
C       2.13       4.10       7.48
C       1.99      -2.91       7.76
C       1.86      -1.70       8.46
C       1.87      -1.70       9.86
C       2.02      -2.89      10.55
C       2.15      -4.11       9.86
C       2.13      -4.10       8.46
S       2.50       5.56       8.46
S       2.50      -5.56       7.48
N       1.82       0.54       8.29
N       1.82      -0.54       7.65
O       1.32      -6.19      10.60
O       3.33      -5.45      11.39
O       1.32       6.19       5.34
O       3.33       5.45       4.55
O       1.33       6.41       8.61
O       3.14       5.12       9.67
O       3.45       6.35       7.52
O       1.33      -6.41       7.32
O       3.14      -5.12       6.27
O       3.45      -6.35       8.42
