52

C       2.90      13.16       5.80
C       0.44      20.05      -6.88
C       4.64       6.10      -6.91
C       2.91      11.94       2.19
C       2.76      13.13       1.45
C       0.96      17.59      -4.01
C       1.19      16.36      -4.67
C       3.95       9.80      -4.71
C       3.92       9.75      -6.13
C       1.09      16.39      -6.09
C       0.83      17.57      -6.77
C       0.60      18.78      -6.10
C       0.65      18.76      -4.71
C       4.17       8.56      -6.82
C       4.49       7.37      -6.15
C       4.57       7.42      -4.75
C       4.28       8.60      -4.05
C       2.66      14.33       2.18
C       2.72      14.34       3.57
C       2.87      13.15       4.30
C       2.95      11.96       3.59
C       3.31      12.08      -1.97
C       1.97      14.12      -1.94
C       2.70      13.12      -0.03
C       3.58      11.03      -3.98
C       2.58      13.08      -4.05
C       1.58      15.14      -3.95
N       2.62      13.09      -2.65
N       1.96      14.07      -0.61
N       3.41      12.15      -0.64
N       3.87      11.09      -2.67
N       2.97      11.99      -4.70
N       1.37      15.10      -2.62
N       2.14      14.16      -4.69
O       5.62       5.33      -6.65
O       3.85      13.79       6.35
O       1.34      20.26      -7.75
O       3.75       5.87      -7.78
O      -0.53      20.81      -6.62
O       1.97      12.53       6.38
F       2.62      15.51       4.23
F       2.54      15.52       1.57
F       3.10      10.79       4.25
F       2.97      10.74       1.60
F       4.31       8.50      -2.71
F       4.85       6.31      -4.05
F       3.67      10.82      -6.89
F       4.11       8.58      -8.16
F       1.08      17.71      -2.68
F       0.48      19.90      -4.01
F       1.22      15.29      -6.84
F       0.76      17.53      -8.12
