38

O      10.01      12.75      12.30
O      14.81      17.64      11.99
O       9.94      12.79      10.05
C      13.59      14.89       9.82
C      12.08      16.47      10.96
C      13.52      15.91      10.97
C      11.66      14.05      11.12
C      11.10      15.48      11.03
C      12.62      14.05      12.32
C      13.63      15.04      12.24
C      14.63      15.09      13.20
C      12.60      13.89       9.90
O      14.77      17.56       9.73
C      11.72      17.81      10.89
C      14.56      14.83       8.82
C      10.37      18.17      10.90
C      12.61      12.83       9.00
C       9.39      17.18      10.98
C      10.46      13.09      11.16
C      14.47      17.11      10.88
C      14.56      13.77       7.91
C      12.63      13.13      13.37
C      13.59      12.77       8.00
C       9.75      15.84      11.04
C      13.64      13.20      14.34
H      15.42      15.83      13.14
C      14.64      14.16      14.26
H      12.49      18.58      10.81
H      15.33      15.60       8.77
H       8.33      17.45      10.98
H      11.86      12.05       9.07
H      10.10      19.22      10.84
H      15.33      13.72       7.14
H      11.86      12.37      13.44
H      13.60      11.93       7.30
H       8.99      15.07      11.09
H      13.65      12.47      15.16
H      15.44      14.20      15.00
