44

H       2.30       4.33      15.50
H       2.34       4.38      12.98
H      -0.62       1.24      13.03
H      -0.55       1.33      15.52
H       1.92      -0.21       8.98
H       1.80      -0.14       6.47
H      -0.58       6.17       6.76
H      -0.49       6.09       9.28
N       0.87       2.84      15.59
N       0.81       2.86      11.39
N       0.48       3.07       4.36
N       0.37       3.24       0.16
H       1.85       4.68       0.26
H       1.96       4.65       2.78
H      -1.10       1.59       2.71
H      -1.08       1.76       0.21
O       1.60       0.71      11.31
O       1.27       0.92       4.24
O      -0.28       5.24       4.43
O      -0.02       5.00      11.51
C       1.67       3.67      14.90
C       1.69       3.69      13.51
C       0.85       2.82      12.82
C       0.03       1.94      13.53
C       0.07       1.99      14.92
C       1.22       1.70      10.69
C       1.19       1.79       9.22
C       1.59       0.69       8.47
C       1.52       0.73       7.07
C       1.05       1.87       6.42
C       0.95       1.87       4.94
C       0.10       4.25       5.05
C       0.18       4.19       6.53
C      -0.22       5.29       7.28
C      -0.16       5.24       8.68
C       0.30       4.10       9.33
C       0.34       4.07      10.80
C       0.73       2.97       8.58
C       0.66       3.01       7.16
C       1.21       4.03       0.85
C       1.27       4.00       2.24
C       0.43       3.12       2.92
C      -0.44       2.30       2.21
C      -0.44       2.39       0.82
