16

O      26.55      19.60      30.80
Br      30.30      15.74      27.31
O      27.57      21.64      30.93
S      32.09      19.80      27.74
S      28.50      18.25      29.21
C      33.09      17.62      26.40
Br      30.30      22.30      29.65
C      27.50      20.43      30.55
C      30.82      17.51      27.64
C      29.77      20.53      29.31
C      31.99      18.14      27.21
C      28.61      19.90      29.74
C      30.58      19.66      28.55
C      30.02      18.38      28.41
O      34.04      18.45      26.14
O      33.02      16.40      26.02
