32

H       9.28       6.38      13.47
H       9.37       6.32      15.96
H       5.47       8.13      16.16
H       5.37       8.15      13.65
H       9.83       7.26      21.70
H      10.12       8.03      24.08
H       5.97       9.10      24.25
H       5.67       8.34      21.88
C       7.29       7.23      13.42
C       7.57       7.35      20.25
C       7.43       7.10      17.68
C       8.99       7.67      22.27
C       9.15       8.10      23.58
C       8.07       8.62      24.29
C       6.81       8.70      23.68
C       6.64       8.28      22.37
C       7.73       7.76      21.64
C       7.16       7.14      11.93
C       8.26       9.08      25.70
C       8.44       6.75      14.07
C       8.50       6.72      15.45
C       7.41       7.19      16.22
C       6.30       7.74      15.56
C       6.24       7.75      14.18
N       6.28       7.35      18.36
N       6.35       7.48      19.66
N       8.60       6.75      19.61
N       8.53       6.63      18.30
O       8.21       6.91      11.25
O       5.98       7.27      11.46
O       9.45       9.06      26.15
O       7.24       9.45      26.36
