14

H       6.94       7.04       0.25
H       9.21       9.08      -0.24
O       9.54       7.87       4.95
O       6.53       6.66      -4.86
C       8.68       8.62       2.94
C       8.52       8.46       0.33
C       7.63       7.66      -0.33
C       7.57       7.60      -1.73
C       8.60       8.54       1.73
O       8.01       9.57       4.94
C       8.75       8.69       4.38
C       7.41       7.45      -4.37
O       8.23       8.18      -5.02
C       7.49       7.52      -2.94
