48

H       1.72      14.17       1.07
H       1.70       9.87       1.07
H       1.74      12.03       4.80
H       2.59      17.80       3.49
H       2.72      15.66       2.28
H       0.50      13.73       5.42
H       0.40      15.86       6.66
H       0.71      13.87      -0.82
H       0.85      13.88      -3.28
H       3.03      10.17      -3.18
H       2.94      10.18      -0.71
H       2.83       8.44       2.26
H       2.85       6.30       3.51
H       0.59       8.13       6.68
H       0.61      10.29       5.45
C       1.99      12.01      -4.89
C       1.72       5.80       5.92
C       1.45      18.26       5.92
C       1.76      12.02       0.90
C       1.72      13.23       1.62
C       1.68      13.25       3.02
C       1.70      12.02       3.71
C       1.72      10.80       3.02
C       1.74      10.82       1.62
C       2.12      16.91       3.91
C       2.18      15.70       3.22
C       1.62      14.53       3.76
C       0.98      14.61       5.01
C       0.92      15.81       5.71
C       1.49      16.97       5.16
C       1.25      13.07      -1.32
C       1.32      13.08      -2.71
C       1.95      12.02      -3.39
C       2.51      10.97      -2.66
C       2.45      10.98      -1.27
C       1.82      12.02      -0.57
C       2.33       8.37       3.22
C       2.34       7.18       3.92
C       1.72       7.08       5.17
C       1.09       8.21       5.72
C       1.11       9.42       5.03
C       1.72       9.52       3.76
O       0.50      19.07       5.66
O       1.06      11.38      -5.48
O       0.78       5.60       6.77
O       2.38      18.46       6.76
O       2.65       4.96       5.66
O       2.94      12.63      -5.46
