10

O       7.08      21.23       9.88
O       2.73      27.91       8.29
O       8.25      22.40       8.29
O       1.56      26.75       9.88
C       7.27      22.21       9.09
C       2.54      26.93       9.09
C       6.25      23.23       9.08
C       3.56      25.91       9.09
C       5.38      24.09       9.09
C       4.43      25.05       9.09
