68

H      17.25       3.72       9.72
H      17.83       2.46      10.86
H      18.17       5.50      11.17
H      18.69       4.30      12.36
H      20.26       3.27      10.66
H      20.62       5.00      10.88
H      19.72       4.46       9.45
H      15.03      -1.84      11.07
H      13.57      -2.64      11.73
H      14.54      -2.51      14.04
H       8.83       2.36       7.54
H      15.64      -3.39      12.95
H      15.99      -1.71      13.40
H       6.34       1.81       8.75
H       5.39       0.36       8.34
H       5.65       2.87       6.59
H       4.74       1.41       6.15
H       3.26       1.75       8.20
H       3.19       3.15       7.11
H       4.15       3.23       8.59
H       9.58      -1.09      11.99
H      12.55       3.97       9.05
H      10.88      -0.80      13.18
H      11.10      -3.28      13.56
H       9.43      -2.76      13.85
H       9.83      -3.58      12.33
H       6.71      -1.89       7.51
H      10.24      -2.48       9.88
H      10.95       3.24       8.38
H      15.38       1.23      12.07
C      14.68       5.30       9.92
C       8.20      -3.77       8.82
C       8.47      -2.31       8.71
C      14.33       3.87      10.20
C       7.90      -0.14       7.87
C       7.60      -1.48       7.98
C       9.60      -1.80       9.34
C       9.94      -0.43       9.24
C       9.09       0.41       8.44
C      11.12       0.14       9.85
C      11.52       1.46       9.49
C      10.66       2.23       8.64
C       9.47       1.75       8.17
C      11.91      -0.54      10.84
C      13.11      -0.02      11.31
C      13.57       1.27      10.88
C      12.75       2.03      10.00
C      14.78       1.81      11.38
C      15.16       3.09      11.04
C      13.16       3.34       9.69
C      17.48       3.51      10.78
C      18.54       4.47      11.29
C      19.86       4.29      10.53
C      14.39      -1.95      11.97
C      15.19      -2.41      13.16
C       5.96       1.21       7.91
C       5.06       2.04       7.00
C       3.85       2.57       7.76
C      10.49      -1.52      12.45
C      10.20      -2.87      13.08
O      16.29       3.68      11.58
O      13.85      -0.64      12.29
O       7.07       0.70       7.14
O      11.49      -1.73      11.42
O      14.07       6.16      10.62
O       8.91      -4.42       9.65
O      15.54       5.52       9.00
O       7.27      -4.26       8.08
