13

O      -2.10       8.59       4.11
H      -4.04       8.42       3.37
H      -2.91       9.39       2.36
O      -3.49       6.96       1.31
O      -1.56       6.68       2.47
C      -1.22       9.72       6.00
C      -2.48       9.42       5.20
C      -2.64       7.26       2.21
C      -3.00       8.50       3.01
H      -2.92      10.36       4.84
H      -3.20       8.89       5.85
O      -0.17       9.07       5.74
O      -1.38      10.61       6.90
