20

H      20.75       9.39      11.37
H      24.69       6.84      12.99
N      22.30      10.85      12.90
N      23.26       5.46      11.28
C      24.64       9.30      14.03
O      24.32      10.41      14.56
C      20.77       6.91      10.38
O      25.69       8.62      14.24
O      20.84       5.66      10.20
O      19.90       7.71       9.89
C      23.65       8.72      13.06
C      21.80       7.52      11.28
C      22.54       9.43      12.57
C      22.93       6.83      11.74
C      21.62       8.84      11.72
C      23.83       7.40      12.62
O      23.00      11.68      12.31
O      21.37      11.09      13.68
O      23.73       5.36      10.14
O      23.11       4.54      12.09
