24

H       1.82      15.12       5.15
H       5.85      12.26       5.73
C       4.00       9.66       9.16
C       2.71      14.50       5.27
C       3.85      14.76       4.49
C       4.97      13.92       4.70
C       4.96      12.87       5.60
C       3.82      12.61       6.38
C       2.70      13.45       6.17
C       3.80      15.78       3.52
C       3.86      11.58       7.34
C       3.98      10.70       8.17
C       3.67      16.64       2.67
C       3.63      17.66       1.66
N       1.43      13.19       6.88
N       6.24      14.16       3.98
O       2.87       9.31       9.64
O       5.14       9.17       9.48
O       2.49      18.10       1.31
O       4.76      18.04       1.22
O       1.13      12.01       7.09
O       0.73      14.17       7.15
O       6.53      15.34       3.73
O       6.94      13.17       3.71
