16

C       1.32      11.06       6.80
O       2.98      12.78       8.20
H      -2.37      11.96       6.17
O      -2.99      10.00       4.95
H       2.37      10.81       6.98
O       1.37      14.32       8.41
C       1.79      13.17       7.99
O      -1.37       8.46       4.74
C      -1.79       9.61       5.16
O      -1.09      13.81       7.40
C       0.84      12.30       7.25
O       1.09       8.96       5.75
C      -0.85      10.47       5.90
C      -0.53      12.64       7.02
C       0.52      10.13       6.13
C      -1.33      11.71       6.35
