38

H       2.98      12.29      10.05
H       4.73      10.51       9.91
H       4.69      10.39      14.24
H       3.01      12.22      14.18
H       6.13       8.95      10.95
H       6.23       8.90      14.02
H       7.55       7.44      10.73
H       9.33       5.76      10.64
H       9.52       5.72      14.95
H       7.73       7.43      15.04
H      10.82       4.19      13.78
H      11.36       4.82      10.81
H      13.22       3.57       9.83
H      14.90       1.73       9.99
H      13.86       0.94      13.91
H      12.16       2.73      13.94
C       3.40      11.85      10.95
C       4.36      10.85      10.89
C       4.87      10.28      12.07
C       4.36      10.78      13.28
C       3.40      11.79      13.26
C       5.87       9.23      11.97
C       6.49       8.61      13.00
C       7.51       7.58      12.90
C       7.98       7.08      11.67
C       8.99       6.14      11.61
C       9.58       5.64      12.80
C       9.09       6.11      14.03
C       8.09       7.07      14.08
C      10.66       4.67      12.81
C      11.47       4.33      11.78
C      12.52       3.32      11.87
C      13.34       3.03      10.76
C      14.27       2.00      10.84
C      13.68       1.56      13.03
C      12.74       2.57      13.04
N       2.92      12.32      12.12
N      14.43       1.25      11.95
