35

C       5.38      15.47      17.64
C       4.92      13.24      18.73
C       5.04      12.39      19.82
F       7.75      10.64      22.92
F       8.04      12.78      22.49
F       7.70      11.37      20.86
F       5.16       9.88      23.35
F       3.74      10.75      21.92
F       5.57       9.76      21.20
H       2.90      14.39      25.02
H       3.60      13.42      22.85
H       7.15      11.84      24.71
H       6.43      12.82      26.85
H       6.11      14.63      22.14
H       6.03      16.11      20.16
H       4.59      12.84      17.77
H       4.83      11.33      19.69
O       5.08      13.97      28.37
O       3.33      15.10      27.44
O       6.36      16.30      17.66
O       4.53      15.35      16.70
C       4.32      14.29      27.40
C       4.64      13.67      26.08
C       3.83      13.83      24.94
C       4.23      13.29      23.72
C       5.43      12.57      23.61
C       6.22      12.40      24.75
C       5.83      12.95      25.96
C       5.80      11.95      22.25
C       7.33      11.67      22.13
C       5.06      10.57      22.18
C       5.48      12.87      21.06
C       5.79      14.23      21.19
C       5.73      15.07      20.08
C       5.31      14.58      18.83
