30

H      11.82      11.30       9.86
H      18.62       7.01       9.85
H      11.82       7.01       9.86
H      18.62      11.30       9.86
H      13.98       5.75       9.86
H      16.46      12.56       9.86
H      16.46       5.75       9.86
H      13.98      12.56       9.86
C      15.90       6.69       9.86
C      14.54      11.62       9.86
C      20.25       9.16       9.84
C      10.19       9.16       9.88
C      12.39      10.37       9.87
C      18.05       7.95       9.85
C      11.69       9.16       9.87
C      18.75       9.16       9.85
C      12.39       7.95       9.86
C      18.05      10.37       9.85
C      13.79       7.92       9.86
C      16.65      10.40       9.86
C      14.51       9.16       9.86
C      15.93       9.16       9.86
C      13.79      10.40       9.86
C      16.65       7.92       9.86
C      14.54       6.69       9.86
C      15.90      11.62       9.86
O      20.83       8.02       9.84
O       9.61      10.29       9.88
O       9.61       8.02       9.88
O      20.83      10.29       9.84
