22

C       7.68       2.51      13.96
C       6.56      -2.44      14.06
C       5.32      -0.38      14.32
C       8.93       0.44      13.71
C       5.34      -1.75      14.29
C       8.90       1.82      13.74
C       7.73      -1.73      13.87
C       6.51       1.79      14.14
C       7.74      -0.31      13.90
C       6.50       0.38      14.12
H       5.57       2.34      14.30
H       8.66      -2.27      13.70
H       9.81       2.40      13.60
H       4.44      -2.34      14.44
H       4.38       0.16      14.50
H       9.86      -0.09      13.53
C       6.59      -3.94      14.02
C       7.65       4.00      13.99
O       6.51       4.56      14.04
O       8.77       4.61      13.96
O       7.72      -4.49      13.82
O       5.49      -4.55      14.20
