16

C      -6.99      15.56       9.73
N     -10.57      14.58       7.29
C     -12.92      15.84       9.53
O      -8.86      14.71      11.97
H      -9.62      14.48      12.53
H      -8.90      16.18       8.97
H     -11.26      15.88      11.60
O     -13.57      15.44       8.52
C      -9.30      15.27      10.81
O      -6.34      14.67      10.38
O      -6.47      16.42       8.94
C      -8.46      15.65       9.81
C     -10.73      15.57      10.69
O     -13.39      16.51      10.51
C     -11.47      15.48       9.55
C     -10.96      14.98       8.32
