28

O       5.75       7.91       7.99
O       6.59       5.81       8.28
H      16.69       8.03       2.94
H      14.61       7.35       4.14
H      12.90      11.23       3.34
H      14.99      11.89       2.12
H      10.94       6.17       6.22
H       8.85       5.51       7.43
H       7.18       9.40       6.70
H       9.26      10.08       5.49
O      17.21      11.54       1.18
O      18.17       9.55       1.74
C       6.65       7.02       7.85
C      17.20      10.39       1.74
C      15.96      10.00       2.46
C      15.85       8.72       3.03
C      14.70       8.34       3.70
C      13.62       9.25       3.82
C      13.73      10.53       3.24
C      14.89      10.90       2.57
C      12.44       8.87       4.50
C      11.42       8.54       5.09
C      10.24       8.17       5.78
C      10.12       6.87       6.33
C       8.96       6.51       7.00
C       7.90       7.42       7.13
C       8.01       8.70       6.59
C       9.17       9.08       5.91
