18

S      18.07      13.41       4.94
S      18.77       9.67       3.19
H      20.78      12.73       3.19
C      15.64      12.90       6.14
C      21.22      10.16       2.00
C      16.81      11.08       4.79
C      20.01      11.97       3.34
C      16.71      12.38       5.32
C      20.12      10.69       2.82
C      18.81      12.12       4.07
C      18.03      10.95       4.07
N      15.86      10.11       4.91
H      16.11       9.15       4.73
H      15.10      10.30       5.56
O      14.66      12.10       6.41
O      15.73      14.12       6.54
O      21.11       8.94       1.62
O      22.19      10.96       1.74
