16

O      15.06       9.13       8.78
Br      12.80      11.25      10.79
Br      13.66       5.03      12.77
C      11.24       6.91      13.51
C      12.30       7.55      12.64
C      12.12       8.87      12.21
H      11.25       9.43      12.53
H      15.22       6.84      11.04
C      13.07       9.45      11.37
C      14.18       8.73      10.94
C      14.36       7.41      11.37
C      13.42       6.83      12.21
C      15.22       9.34      10.03
O      10.28       6.38      12.87
O      11.41       6.99      14.77
O      16.16       9.97      10.60
