50

O       7.08       4.54       4.74
O       6.43       3.14       6.40
H       9.19       2.94       7.35
H       7.69       3.69       8.66
H       9.01       4.85      10.04
H      10.57       3.90       8.72
H       8.75       6.18       5.35
H       7.51       6.76       6.43
H       9.15       7.79       7.71
H      10.40       7.13       6.68
O      11.04       6.20      10.55
O      11.78       7.39       8.77
H       9.82       1.33       5.70
H       8.34       2.04       5.04
H       9.76       1.86       4.00
H       9.65       4.25       4.71
H      11.05       3.45       5.42
H       5.34       3.12       8.66
H       5.74       3.88      10.21
H       4.28       4.38       9.34
H       6.02       6.10       9.00
H       5.70       5.32       7.49
H       6.60       5.52      11.03
H       7.99       5.99      12.01
H       6.73       7.17      11.65
H       8.87       7.44      10.28
H       7.43       7.34       9.30
H      11.65       5.50       5.34
H      12.43       6.58       6.51
H      13.34       5.26       5.77
H      12.63       4.83       8.19
H      12.24       3.57       7.06
C       7.14       4.10       5.94
C      10.98       6.55       9.32
C       9.47       3.89       6.87
C       7.64       4.75       8.34
C       8.67       5.54       9.25
C      10.52       4.56       7.84
C       8.45       6.19       6.40
C       9.53       6.85       7.28
C       8.16       4.75       6.88
C       9.93       5.90       8.42
C       9.95       3.49       5.45
C       9.44       2.11       5.02
C       6.15       5.14       8.48
C       5.33       4.08       9.21
C       8.07       6.75       9.98
C       7.30       6.33      11.23
C      11.98       4.60       7.33
C      12.36       5.54       6.18
