25

C       6.05       4.50       1.27
N       4.68       8.45      -1.00
H       2.93       5.69       1.98
C       6.38       5.45       0.31
N       5.08       9.41      -1.85
H       4.51       3.86       2.65
C       5.45       6.45       0.00
N       6.72       7.83      -1.70
H       6.77       3.72       1.55
C       5.68       7.53      -0.92
N       8.53      11.20      -5.15
H       7.35       5.47      -0.19
C       6.32       9.00      -2.26
H       8.60       8.25      -3.51
C       7.09       9.77      -3.22
H       9.80       9.57      -5.25
C       8.25       9.23      -3.80
H       7.14      12.73      -4.90
C       8.92       9.98      -4.76
H       5.78      11.49      -3.20
C       7.43      11.73      -4.57
C       3.92       5.59       1.53
C       6.68      11.05      -3.62
C       4.80       4.57       1.89
N       4.23       6.52       0.60
