24

H       5.55       6.69      15.24
Cl       7.80       5.37      17.14
H       9.49       7.39      15.27
H       5.12       9.03      16.81
H       9.06       9.73      16.84
Cl       6.81      11.04      14.94
O       6.20       8.42      22.07
O       8.41       8.00      10.01
O       8.48       8.39      22.03
O       6.12       8.03      10.05
C       7.33       8.38      21.49
C       7.27       8.04      10.59
C       6.32       7.37      15.60
C       8.29       9.05      16.48
C       7.52       6.97      16.52
C       7.09       9.45      15.56
C       7.31       8.31      20.05
C       7.30       8.11      12.03
C       6.08       8.65      16.47
C       8.52       7.76      15.62
C       7.28       8.27      17.42
C       7.32       8.15      14.66
C       7.29       8.29      18.83
C       7.32       8.12      13.25
