30

H       3.81      10.15       9.03
C       4.38      13.96       8.59
H       0.52       9.49       6.62
C       2.83      12.00       8.45
C       1.01      14.62       6.45
C       2.98      10.61       8.48
C       0.36      15.87       6.58
C       1.15      10.23       7.12
N       2.18       9.76       7.85
H       0.04      16.43       5.69
N       3.74      12.77       9.17
N       1.22      14.14       5.17
N       0.12      16.45       7.75
H       0.07      11.96       6.46
H       4.41      12.19       9.66
H       5.22      14.24       9.24
H       3.69      14.81       8.55
H       4.77      13.77       7.58
H       0.90      14.77       4.45
H       2.60      13.49       3.76
H       1.95      12.17       4.77
H       3.15      13.30       5.44
H       1.43      14.13       9.79
C       2.28      13.22       4.77
C       0.53      15.86       8.89
C       0.92      11.59       7.03
C       1.14      14.62       8.86
C       1.75      12.52       7.69
C       1.36      13.94       7.65
H       0.34      16.41       9.81
