20

H       2.70      -2.92      11.66
H       0.97      -4.64      11.33
H      -1.18      -4.55      12.62
H      -1.49      -2.75      14.32
H      -0.87      -0.98      15.46
H      -0.29       1.48      16.33
H       0.27       0.24      17.47
C       0.42      -1.83      13.96
C       1.62      -1.84      13.18
C       1.79      -2.89      12.25
C       0.80      -3.85      12.06
C      -0.40      -3.81      12.79
C      -0.58      -2.80      13.73
C       0.14      -0.90      15.02
C       0.57       0.84      16.60
C       1.73       1.74      16.99
N       0.96      -0.01      15.49
O       2.55      -0.88      13.30
O       2.82       1.62      16.30
O       1.63       2.53      17.95
