13

N       4.69      14.54       7.50
H       5.91      17.71       7.29
H       5.91      11.36       7.29
H       4.58      11.82       8.37
H       4.58      17.25       8.37
H       4.31      11.82       6.61
N       6.74      13.85       7.08
C       5.05      12.03       7.40
C       5.05      17.04       7.40
C       5.50      15.62       7.33
N       6.74      15.22       7.08
C       5.50      13.45       7.33
H       4.31      17.25       6.61
