10

O       2.26       6.43      10.36
O       7.98       9.25      14.68
C       7.17       8.83      12.57
C       4.36       7.37      10.48
C       6.27       8.35      11.88
C       5.28       7.84      11.14
C       8.18       9.39      13.42
C       3.27       6.83       9.70
O       3.45       6.81       8.43
O       9.16       9.97      12.84
