28

F       1.90       8.87       4.53
F       7.00       7.92      -4.71
H       6.27       7.62       4.76
H       6.45       7.61       2.28
H       2.31       8.85       2.03
H       6.68       7.93      -2.20
H       2.64       9.20      -4.78
H       2.54       9.20      -2.30
C       4.18       8.29       6.29
C       4.66       8.52      -6.39
C       4.21       8.21       4.80
C       5.40       7.87       4.14
C       5.51       7.87       2.76
C       4.40       8.24       1.97
C       3.18       8.56       2.61
C       3.11       8.53       3.99
C       4.49       8.34       0.56
C       4.54       8.45      -0.65
C       4.59       8.55      -2.06
C       5.78       8.23      -2.74
C       5.81       8.26      -4.13
C       4.69       8.59      -4.90
C       3.52       8.94      -4.20
C       3.46       8.93      -2.81
O       5.30       8.18       6.89
O       5.76       8.32      -6.99
O       3.52       8.63      -6.95
O       3.06       8.48       6.86
