28

O      17.36      11.65       1.27
O      18.24       9.59       1.66
H      14.67       7.40       4.14
H      12.99      11.32       3.37
F      16.86       7.86       2.97
F      15.00      12.19       2.12
H       9.29      10.15       5.50
F       7.10       9.70       6.67
H      10.97       6.23       6.27
F       8.96       5.36       7.52
C       6.64       7.09       7.89
C      17.32      10.46       1.75
C      16.06      10.07       2.47
C      15.88       8.79       3.05
C      14.74       8.40       3.72
C      13.67       9.31       3.85
C      13.79      10.60       3.29
C      14.96      10.94       2.63
C      12.49       8.94       4.53
C      11.47       8.62       5.11
C      10.29       8.24       5.79
C      10.17       6.96       6.35
C       9.00       6.61       7.01
C       7.90       7.49       7.17
C       8.08       8.77       6.59
C       9.22       9.15       5.92
O       5.72       7.97       7.97
O       6.60       5.91       8.36
