16

H      30.08      19.14      25.65
H      29.92      18.47      31.19
C      30.00      20.70      27.17
C      29.99      15.70      30.50
O      30.02      15.86      31.77
C      29.98      16.91      29.68
O      29.97      14.58      29.87
O      29.90      23.03      26.99
C      30.04      19.39      26.71
C      29.95      18.22      30.14
S      29.94      20.84      28.90
S      30.02      16.77      27.95
C      29.96      19.12      29.06
C      30.01      18.49      27.79
O      30.14      21.77      25.09
C      30.01      21.92      26.36
