25

C      -2.29       1.71      13.74
N      -2.09      -1.39      12.10
H      -4.14       2.76      13.48
C      -3.17       2.77      13.98
N      -3.63       0.30      12.10
H      -3.46       4.59      15.10
C      -2.79       3.76      14.88
N      -1.06       1.61      14.34
H      -1.21       4.41      16.22
C      -1.54       3.66      15.50
N      -5.27      -3.07       8.54
H       0.27       2.47      15.67
C      -0.71       2.58      15.21
H      -5.33      -0.06      10.07
C      -4.04      -1.69      10.66
H      -6.34      -1.31       8.18
C      -5.04      -1.09       9.88
H      -4.15      -4.72       9.11
C      -5.61      -1.79       8.83
H      -2.97      -3.55      10.96
C      -4.37      -3.68       9.34
C      -2.58       0.59      12.89
C      -3.73      -3.03      10.38
C      -3.29      -0.93      11.64
N      -1.63      -0.40      12.89
