22

O       8.10       4.42       8.68
O       6.51      -4.70       9.10
O       6.46       4.28      10.26
O       7.70      -4.79      11.05
H       6.66       2.04      11.35
H       8.00       2.28       7.28
H       6.51      -0.19      12.47
H       7.94      -0.20       7.08
H       6.65      -2.67      12.33
H       7.48      -2.43       8.12
C       7.28       3.78       9.43
C       7.09      -4.17      10.11
C       7.30       2.29       9.33
C       7.06      -2.69      10.20
C       6.74      -0.68      11.52
C       6.81      -2.06      11.45
C       7.29      -1.93       9.07
C       7.32      -0.52       9.14
C       7.00       0.12      10.38
C       6.95       1.53      10.43
C       7.70       1.66       8.12
C       7.67       0.29       8.02
