66

H       2.17       5.20      18.50
H       4.34       6.21      16.26
H       1.04       2.82      16.15
H       2.49       2.06      15.58
H       1.16       4.16      14.24
H       0.85       4.31      17.80
H       0.66       5.71      16.03
H       2.83       3.69      13.93
H       6.83       1.90      14.40
H       6.66       0.74      15.73
H       5.85       0.44      14.18
H       4.16       1.22      15.73
H       4.43       2.48      14.52
H       6.15       3.42      16.34
H       5.31       2.38      17.45
H       4.88       5.65      20.86
H       6.31       6.26      20.01
H       5.01       7.38      20.45
H       4.85       6.88      18.03
H       3.45       6.28      18.91
H       4.59       3.97      18.98
H       5.91       4.66      18.08
H       6.84       5.66      12.45
H       5.21       6.21      11.97
H       6.50       7.39      12.28
H       4.89       7.30      14.18
H       6.49       6.82      14.70
H       5.93       4.51      14.79
H       4.57       4.69      13.71
H       2.10       9.25      18.87
H       1.05       9.85      17.57
H       0.36       9.45      19.16
H      -0.15       7.61      17.54
H       0.93       7.03      18.81
H       2.88       7.44      17.21
H       1.72       7.89      15.98
C       2.55       8.37      12.44
C       1.82       4.75      17.57
C       4.21       4.14      16.87
C       4.11       5.26      15.76
C       2.50       7.26      13.35
C       2.76       3.59      17.14
C       1.68       5.80      16.44
C       2.63       5.40      15.26
C       2.14       4.03      14.72
C       2.07       3.02      15.87
C       2.54       6.39      14.20
C       2.78       2.56      18.17
C       2.80       1.69      19.02
C       2.81       0.69      20.06
C       5.17       2.96      16.52
C       4.88       1.97      15.38
C       6.13       1.22      14.90
C       4.82       4.71      18.20
C       4.52       6.11      18.75
C       5.22       6.36      20.09
C       5.08       5.17      14.56
C       5.64       6.52      14.07
C       6.08       6.44      12.61
C       1.86       7.26      16.87
C       0.87       7.71      17.94
C       1.11       9.14      18.41
O       1.44       8.89      12.10
O       3.72       8.74      12.09
O       1.68       0.24      20.44
O       3.96       0.34      20.50
