14

O       5.28       3.43       9.25
C       7.07       3.93      10.88
O       9.47       4.02      12.73
H       9.52       3.27       8.90
H       8.66       2.53      10.77
H       6.94       3.71      11.95
O       6.13       1.75      10.46
H       6.08       5.58      11.21
O       8.78       3.85       9.16
O       6.82       5.32      10.63
C       9.50       4.34      11.52
C       6.10       2.96      10.14
C       8.53       3.60      10.56
O      10.32       5.23      11.05
