36

C      -0.68       6.50      22.56
C      -0.37       4.88      20.93
C      -1.74       4.61      20.88
H      -6.52       8.28      26.42
H      -5.16       7.20      24.63
H      -8.69       4.99      23.49
H      -9.89       6.09      25.41
H      -4.84       2.51      18.97
N      -8.25       7.21      25.99
N      -4.76       5.72      22.71
N      -4.58       4.12      20.95
N      -6.65       4.43      22.10
N       0.15       5.81      21.75
H       0.34       4.34      20.30
N      -7.96       1.37      18.38
H      -2.13       3.84      20.21
H      -8.51       3.17      21.17
H      -0.20       7.22      23.23
H      -2.69       6.84      23.26
H      -6.15       1.14      17.37
H      -9.67       1.68      19.51
C      -6.96       7.54      25.76
C      -6.21       6.95      24.76
C      -6.82       6.00      23.92
C      -8.17       5.69      24.14
C      -8.84       6.30      25.20
C      -6.04       5.35      22.85
C      -4.06       5.03      21.79
C      -5.89       3.88      21.13
C      -6.58       2.97      20.19
C      -5.91       2.37      19.12
C      -6.64       1.60      18.23
C      -8.60       1.91      19.43
C      -7.95       2.72      20.35
C      -2.60       5.31      21.73
C      -2.05       6.28      22.58
