47

N      19.88       6.45      18.00
C      16.12       7.22      13.11
C      17.41       6.77      13.72
C      17.41       5.98      14.88
N      17.36       6.45      18.00
H      19.92       7.05      18.83
H      20.78       5.66      20.69
O      21.04       7.74      24.06
O      22.18       7.06      22.22
C      21.12       7.22      13.11
C      19.83       6.77      13.72
C      19.83       5.98      14.88
O      16.20       7.74      11.95
O      15.05       7.06      13.79
C      16.12       7.22      22.90
C      17.41       6.77      22.28
C      17.41       5.98      21.13
H      17.32       7.05      17.18
H      16.46       5.66      15.32
O      21.04       7.74      11.95
O      22.18       7.06      13.79
O      16.20       7.74      24.06
C      17.88       2.91      18.00
O      15.05       7.06      22.22
H      19.92       7.05      17.18
C      19.36       2.91      18.00
H      20.78       5.66      15.32
C      18.62       7.15      22.87
C      18.62       5.60      20.54
C      18.62       4.81      19.26
H      17.32       7.05      18.83
H      16.46       5.66      20.69
H      17.25       2.02      18.00
C      18.62       7.15      13.14
C      18.62       5.60      15.47
C      18.62       4.82      16.75
H      18.62       7.76      23.77
H      19.99       2.02      18.00
C      18.62       5.70      18.00
H      18.62       7.76      12.24
N      17.80       3.62      19.34
C      21.12       7.22      22.90
C      19.83       6.77      22.28
C      19.83       5.98      21.13
N      19.44       3.62      16.67
N      17.80       3.62      16.67
N      19.44       3.62      19.34
