18

H       8.01       5.20      20.59
H      12.40       3.90      21.32
O       8.91       4.79      20.68
O      11.48       4.18      21.03
C       9.49       6.33      23.85
N      11.60       5.54      22.91
N       8.80       5.81      22.76
H      12.67       6.56      25.10
H      11.43       7.67      26.95
C      10.91       6.20      23.92
H       8.97       7.98      26.78
C      11.59       6.70      25.04
C      10.90       7.32      26.07
C       9.48       5.20      21.81
C      10.92       4.97      21.93
C       8.81       7.00      24.88
C       9.50       7.48      25.98
H       7.73       7.13      24.82
