26

O       4.86      -7.69      17.30
O       8.86      -2.08      17.30
F       6.93      -3.38      20.22
F       5.46      -5.45      20.22
F       6.14      -2.84      17.60
F       4.69      -4.88      17.60
H       8.50      -4.63      20.29
H       7.15      -6.52      20.29
H       9.75      -5.51      18.41
H       8.39      -7.42      18.41
H       7.30      -3.78      16.25
H       5.96      -5.67      16.25
H       9.28      -5.18      16.74
H       7.92      -7.08      16.74
C       5.72      -7.57      18.23
C       9.02      -2.93      18.23
C       7.61      -4.46      19.66
C       6.71      -5.74      19.66
C       8.88      -5.38      17.75
C       7.99      -6.64      17.75
C       6.91      -3.96      17.26
C       6.00      -5.23      17.26
C       8.08      -4.14      18.23
C       6.55      -6.29      18.23
O       5.99      -8.42      19.13
O       9.92      -2.91      19.13
