20

H       1.12      13.87       2.31
H       2.94      19.72       2.33
H       0.68      12.44       0.28
H       3.40      21.17       0.30
H       1.78      15.81      -2.16
H       2.32      17.80      -2.16
C       1.83      16.09      -0.01
C       2.25      17.51      -0.01
C       1.21      14.03      -1.09
C       2.88      19.57      -1.08
N       1.63      15.53       1.20
N       2.44      18.07       1.21
H       1.04      13.46      -2.01
H       3.05      20.15      -1.99
C       1.24      14.25       1.30
C       2.83      19.35       1.31
C       1.01      13.47       0.16
C       3.07      20.14       0.18
C       1.64      15.36      -1.19
C       2.45      18.25      -1.18
