23

C       4.98       5.60       5.31
H       4.57      10.90       8.62
N       5.45       5.42       7.74
H       3.94       8.59       9.38
N       6.38      10.29       7.78
H       7.72       7.20       7.79
O       3.19       3.95       7.63
H       8.17       9.54       7.06
O       2.13       5.49       6.37
H       6.15       5.85       9.67
H       4.42       6.21       9.41
H       4.18       6.87       6.85
H       5.81       6.30       5.11
H       4.19       5.81       4.59
H       5.35       4.58       5.18
C       5.23      10.04       8.44
C       4.89       8.76       8.87
C       5.77       7.70       8.62
C       6.98       7.98       7.98
C       7.24       9.28       7.56
C       5.42       6.27       8.96
C       4.45       5.81       6.73
C       3.15       5.02       6.94
