20

C      14.99       1.96       3.05
C      12.92       3.06       4.80
C      13.86       1.23       3.45
C      14.05       3.80       4.41
C      12.87       1.76       4.29
C      15.05       3.27       3.57
C      13.17      -0.11       3.33
C      12.05       0.49       4.27
H      12.83      -0.37       2.31
H      13.73      -0.96       3.73
H      11.94      -0.01       5.25
H      11.05       0.58       3.82
C      11.85       3.59       5.70
C      16.03       1.37       2.16
O      11.97       4.80       6.09
O      10.91       2.78       5.99
O      17.03       2.09       1.88
O      15.80       0.18       1.76
F      14.25       5.07       4.81
F      16.07       4.10       3.28
