60

O       5.73       8.02      11.85
O       5.76      10.21      27.42
O       5.10       8.04      27.42
O       5.14      10.21      11.85
H       3.58      10.20      22.69
H       3.72       7.83      16.58
H       7.17      10.41      16.57
H       7.30       8.04      22.70
H       5.60       6.98      20.88
H       5.31      11.27      18.39
H       5.58       6.98      18.39
H       5.29      11.27      20.88
H       2.60      12.34      26.16
H       4.36      12.07      26.18
H       3.54      12.44      24.64
H       2.30      10.24      24.80
H       3.08       9.91      26.35
H       2.96       5.53      13.29
H       4.70       5.90      13.45
H       3.71       5.66      14.90
H       2.43       7.75      14.40
H       3.30       7.93      12.87
H       7.17      12.58      14.89
H       6.18      12.34      13.44
H       7.91      12.71      13.28
H       8.45      10.49      14.39
H       7.58      10.31      12.86
H       8.26       5.91      26.17
H       6.50       6.18      26.18
H       7.34       5.81      24.65
H       8.57       8.00      24.82
H       7.79       8.33      26.37
C       5.44       9.12      12.43
C       5.43       9.12      26.84
C       5.54       7.92      20.33
C       5.38      10.33      18.94
C       5.52       7.92      18.94
C       5.35      10.33      20.33
C       5.45       9.12      18.22
C       5.44       9.12      21.05
C       4.38       9.74      24.64
C       4.47       8.38      14.62
C       6.42       9.86      14.62
C       6.50       8.51      24.65
C       4.40       9.74      23.24
C       4.49       8.39      16.02
C       6.40       9.86      16.02
C       6.48       8.51      23.25
C       5.44       9.12      22.53
C       5.44       9.12      16.74
C       5.43       9.12      25.33
C       5.44       9.12      13.93
C       3.23      10.40      25.38
C       3.44      11.90      25.60
C       3.40       7.58      13.90
C       3.71       6.08      13.89
C       7.48      10.66      13.89
C       7.17      12.16      13.88
C       7.64       7.85      25.39
C       7.42       6.34      25.61
