46

H       8.46      13.71       4.64
C       1.00       9.46      -0.87
C       3.80      13.41       7.15
H       1.88       8.87      -3.03
H       6.91      14.50       2.85
N       8.12      12.95       6.58
H       2.65      11.91       0.41
N       7.02      12.54       7.28
H       5.78      14.19       0.69
H       5.27      12.44      -3.37
H       5.03      10.83      -5.22
N       3.75       7.20      -6.95
H       5.06      12.98      -1.16
H       2.75      11.82       2.64
H       3.92      12.06       4.78
N       2.70       6.69      -6.21
O       1.90      10.56      -1.00
O       4.72      12.31       6.93
H       4.97       8.92      -6.79
H       1.53       8.50      -0.86
H       0.25       9.46      -1.68
H       0.49       9.61       0.09
H       3.62      13.96       6.22
H       4.21      14.09       7.92
H       2.87      12.96       7.51
H       1.68       7.30      -4.47
C       2.48       7.52      -5.18
C       3.37       8.61      -5.22
C       7.72      13.37       5.36
C       6.33      13.21       5.22
C       5.95      12.70       6.48
C       4.15       8.35      -6.36
C       3.46       9.69      -4.24
C       2.62       9.67      -3.12
C       2.72      10.60      -2.09
C       3.73      11.61      -2.12
C       4.51      11.66      -3.30
C       4.38      10.75      -4.34
C       5.36      13.72       1.59
C       6.00      13.90       2.81
C       4.32      12.57       3.90
C       3.66      12.42       2.68
C       4.20      12.93       1.48
C       4.13      12.43      -0.99
C       3.58      12.45       0.25
C       5.53      13.27       3.99
