18

C      22.70      10.91      10.49
C      25.70      10.77      14.85
C      23.26       9.43      12.54
C      25.59       9.63      15.65
C      23.38      10.57      11.74
C      24.11       9.51      13.68
C      24.84      10.70      13.72
H      26.43      12.49      14.45
H      22.55       7.70      12.92
S      24.44       8.47      15.01
S      24.51      11.73      12.38
O      21.86      10.07      10.02
O      27.20      10.07      17.30
O      22.45       8.39      12.24
O      26.02       8.11      17.36
O      26.53      11.81      15.14
O      23.03      12.03       9.97
C      26.32       9.25      16.86
