25

C      11.29       8.62      12.03
C      10.92       7.83      10.95
C      10.13       8.36       9.92
H      13.38      11.73      15.68
C       9.76       9.71       9.98
H      13.16      10.20      13.69
C      10.11      10.49      11.06
H       9.09      11.60      13.31
H      11.87       8.18      12.85
C       9.65       7.50       8.78
N      10.19      12.40      14.85
H      11.22       6.78      10.89
O      10.45      14.23      16.78
H       9.17      10.12       9.16
O      12.59      13.63      17.16
H       9.81      11.54      11.10
C      11.48      13.51      16.57
O       9.95       6.26       8.80
C      11.37      12.45      15.50
O       8.96       8.08       7.88
C      12.45      11.65      15.13
C      12.32      10.80      14.03
C      11.11      10.77      13.32
C      10.07      11.59      13.80
C      10.86       9.95      12.12
