26

H       8.58       6.47      17.30
H       4.50       7.53      21.50
H       4.53       8.26      23.88
H       8.59       7.26      19.66
H       8.50       9.05      21.01
H       8.55       9.69      23.41
O       5.37       6.12      15.05
H       4.40       8.23      19.33
O       7.63       5.95      15.16
H       4.40       7.37      16.99
O       5.40       9.62      25.75
O       7.66       9.80      25.73
C       6.49       6.87      17.01
C       7.68       6.86      17.76
C       7.68       7.32      19.07
C       6.50       7.80      19.67
C       6.51       6.29      15.64
C       5.32       7.82      18.90
C       5.31       7.36      17.58
C       5.38       8.02      21.91
C       5.40       8.41      23.24
C       7.67       9.21      22.98
C       7.64       8.84      21.64
C       6.50       8.23      21.08
C       6.54       9.00      23.79
C       6.52       9.49      25.19
