36

O       5.66       7.96       7.90
O       6.53       5.90       8.29
O      17.27      11.59       1.26
O      18.13       9.53       1.65
H      17.54       8.18       2.45
H      15.80      12.30       1.64
H      11.97      11.09       3.84
H      13.71       6.99       4.64
H      11.82       6.40       5.71
H      10.09      10.50       4.92
H       6.25       9.31       7.11
H       8.00       5.19       7.91
O      16.80       7.76       2.95
O      14.91      12.20       2.07
O      12.70      11.50       3.34
O      14.58       7.09       4.21
O      11.09       5.99       6.21
O       9.21      10.40       5.34
C       6.62       7.09       7.80
O       7.00       9.73       6.61
O       8.89       5.29       7.48
C      17.17      10.39       1.76
C      15.95      10.01       2.46
C      15.83       8.70       3.02
C      14.65       8.34       3.69
C      13.59       9.28       3.81
C      13.71      10.57       3.25
C      14.87      10.95       2.58
C      12.41       8.91       4.48
C      11.38       8.58       5.07
C      10.20       8.21       5.75
C      10.09       6.92       6.30
C       8.92       6.54       6.98
C       7.84       7.48       7.10
C       7.97       8.79       6.53
C       9.14       9.14       5.87
