37

C      13.72      11.51      20.56
C      14.92      11.44      21.31
H      15.90      11.64      23.22
C      14.98      11.73      22.66
H      15.80      11.08      20.79
H      11.71      12.56      23.12
C      13.78      12.09      23.32
H      15.86      12.86      29.01
C      13.78      12.34      24.77
C      12.60      12.24      22.60
H      11.55      13.95      31.24
C      12.55      12.02      21.20
H      11.60      13.41      28.79
C      13.76      12.81      27.31
C      11.22      12.70      19.16
H      10.66      12.67      21.18
H      10.53      13.56      19.11
H      10.83      11.88      18.55
H      12.19      13.02      18.74
N      12.60      12.66      25.35
N      14.93      12.46      26.74
N      12.59      12.90      26.64
N      11.39      12.34      20.56
H      15.80      13.41      31.46
C      13.71      10.83      19.25
N      14.95      12.22      25.44
C      14.92      13.09      29.51
O      14.74      14.23      33.55
C      14.89      13.39      30.87
O      12.51      14.53      33.37
C      12.48      13.70      30.74
O      14.85      10.65      18.66
O      12.61      10.37      18.82
C      12.51      13.40      29.39
C      13.74      13.10      28.76
C      13.67      13.70      31.49
C      13.62      14.17      32.90
