38

H       8.97       8.15       9.14
H      16.06       9.77      11.30
H      11.91      10.90      11.47
H       9.06       7.91      13.51
H      14.30      11.54      11.44
H      12.53       4.36      13.21
H      10.79       4.25      14.98
H       9.06       6.04      15.14
H      12.53       4.69       8.84
H      15.41       7.38      11.18
H      10.75       4.79       7.12
H       8.96       6.52       7.28
C      10.80       7.21      12.46
C      12.31       8.78      11.32
C      10.87       8.23      11.31
C      12.73       6.36      11.16
C      13.29       7.79      11.24
C      11.77       6.36       9.96
C      10.77       7.35      10.04
C       9.76       7.40       9.08
C      11.79       6.20      12.38
C      15.01       9.50      11.30
C      12.67      10.13      11.39
C       9.83       7.15      13.46
C      14.03      10.48      11.38
C      11.78       5.15      13.28
C      10.80       5.09      14.28
C      13.93       5.41      11.12
C       9.93       9.43      11.39
C       9.83       6.09      14.37
C      11.76       5.45       8.90
C      14.64       8.15      11.24
C      10.75       5.51       7.93
C       9.76       6.48       8.02
O      14.38       5.06       9.97
O       9.59       9.96      10.29
O      14.45       5.10      12.23
O       9.63       9.88      12.54
