32

H       1.67       7.96       3.54
H       3.23       8.78      -0.72
H       4.65       5.06       0.86
H       2.58       9.66      -3.91
H       3.55      10.14      -2.48
H       4.32       9.49      -3.96
H       5.53       5.14       4.34
H       4.57       3.75       3.87
H       5.80       4.38       2.75
H       3.07       4.50      -1.01
H       1.58       8.07       1.05
H       3.26       4.70      -3.49
C       3.46       6.84      -4.99
C       3.14       6.41       5.09
C       3.16       5.48      -1.48
C       2.27       7.38       1.55
C       3.26       5.59      -2.86
C       2.31       7.32       2.94
C       3.35       6.83      -3.50
C       3.16       6.42       3.60
C       3.32       8.02      -2.72
C       4.02       5.58       2.85
C       3.21       7.88      -1.33
C       3.14       6.64      -0.69
C       3.96       5.67       1.45
C       3.45       9.40      -3.29
C       5.03       4.67       3.48
C       3.10       6.55       0.78
O       3.81       5.75      -5.55
O       3.03       7.53       5.68
O       3.18       7.92      -5.61
O       3.21       5.27       5.68
