28

H       6.37       0.80       9.01
H       2.22      -1.13       7.75
H       6.47      -3.54       8.53
H       6.44      -1.11       8.74
H       2.12       3.22       8.23
H       2.15       0.79       8.01
H       6.37       4.28       9.25
H       2.22      -4.60       7.50
C       4.41      -5.20       8.08
C       4.18       4.87       8.67
C       4.21       3.41       8.68
C       4.38      -3.73       8.08
C       5.41       2.69       8.92
C       5.42       1.29       8.81
C       3.18      -3.01       7.83
C       3.17      -1.62       7.95
C       5.54      -3.00       8.38
C       5.52      -1.62       8.50
C       3.05       2.68       8.37
C       3.07       1.30       8.26
C       4.27       0.58       8.46
C       4.32      -0.90       8.30
O       5.50      -5.80       8.35
O       5.30       5.50       8.90
O       3.09       5.47       8.40
O       3.30      -5.82       7.85
O       6.57       3.30       9.25
O       2.02      -3.62       7.50
