20

C      33.54      17.88      28.34
C      31.47      16.77      26.58
C      32.41      17.20      28.81
C      32.61      17.45      26.09
C      31.43      16.68      27.98
C      33.60      17.98      26.93
C      31.72      16.74      30.08
C      30.60      16.14      29.13
H      32.28      16.00      30.67
H      31.39      17.54      30.75
H      29.60      16.59      29.24
H      30.50      15.05      29.16
C      30.41      16.19      25.71
O      29.47      15.59      26.32
O      30.53      16.35      24.45
C      34.58      18.42      29.26
O      34.38      18.24      30.50
O      35.57      19.02      28.73
F      32.81      17.63      24.77
F      34.63      18.60      26.31
