46

O       1.65      19.28       1.45
O       3.53      18.93       0.33
O       4.10      19.76      -2.64
O       2.24      18.65      -2.19
O       4.10      23.39      -5.66
O       2.24      24.49      -6.11
H       2.10      23.11      -4.09
H       2.10      20.04      -4.22
O       0.66      18.67      -5.42
O       2.53      17.80      -6.21
O       3.11      18.43      -9.51
O       1.14      17.83      -8.70
O       1.65      23.87      -9.75
C       1.94      22.01       2.17
O       3.53      24.22      -8.63
C       1.94      21.14     -10.47
C       2.09      22.03       0.64
C       2.33      20.86      -0.09
C       2.46      20.87      -1.48
C       2.18      22.01      -2.26
C       1.96      23.18      -1.50
C       2.01      23.21      -0.11
C       2.16      22.09      -3.71
C       2.16      21.06      -4.59
C       1.96      19.97      -6.81
C       2.18      21.14      -6.05
C       2.46      22.28      -6.82
C       2.33      22.29      -8.21
C       2.09      21.12      -8.95
C       2.01      19.94      -8.20
N       2.07      24.53       0.56
N       1.69      24.46      -2.22
N       2.52      19.57       0.62
N       2.97      19.64      -2.15
N       2.97      23.51      -6.15
N       2.52      23.58      -8.93
N       1.69      18.69      -6.09
N       2.07      18.62      -8.87
O       2.93      20.79     -11.16
O       0.80      21.50     -10.89
O       2.94      22.36       2.85
O       0.80      21.65       2.58
O       3.11      24.72       1.20
O       1.14      25.32       0.39
O       0.66      24.48      -2.88
O       2.53      25.35      -2.10
