16

H       8.16       7.83       6.66
H      12.56       4.96       8.54
H       7.72       4.47       9.04
H      13.00       8.32       6.16
H      10.53       8.68       6.00
H      10.19       4.10       9.20
C      10.93       7.84       6.56
C       9.79       4.95       8.64
C      12.29       7.65       6.64
C       8.43       5.14       8.56
C      12.06       5.75       7.99
C       8.66       7.03       7.21
C      10.65       5.85       7.97
C      10.07       6.93       7.23
N       7.89       6.18       7.86
N      12.83       6.61       7.34
