36

O       2.68      20.41      22.62
O       4.89      30.70      34.43
O       4.94      20.41      22.68
O       2.62      30.71      34.36
H       5.60      28.45      30.02
H       1.97      22.66      27.03
H       1.83      26.94      31.48
H       5.73      24.17      25.56
H       1.91      28.61      33.31
H       5.65      22.51      23.73
H       2.72      25.02      30.70
H       4.84      26.09      26.34
H       2.78      23.32      28.93
H       4.78      27.79      28.12
C       3.80      20.74      23.12
C       3.77      30.37      33.92
C       4.81      29.42      31.76
C       2.75      21.69      25.28
C       4.78      28.48      30.74
C       2.78      22.64      26.31
C       3.73      27.55      30.63
C       3.83      23.57      26.42
C       2.69      27.61      31.57
C       4.87      23.50      25.48
C       2.72      28.55      32.59
C       4.84      22.56      24.45
C       3.79      29.46      32.73
C       3.77      21.65      24.31
C       3.17      25.27      29.74
C       4.39      25.84      27.30
C       3.21      24.31      28.73
C       4.36      26.80      28.31
C       3.82      24.57      27.49
C       3.75      26.54      29.55
I       6.40      30.81      31.65
I       1.17      20.30      25.39
