36

C      12.99       5.46      17.73
C      12.79       5.51      19.11
C      12.40       5.59      21.93
C      11.84       6.59      21.07
C      12.00       6.53      19.72
C      12.13       5.57      23.31
C      12.55       4.47      24.07
C      14.41       3.50      17.96
C      14.23       3.52      19.36
C      13.42       4.53      19.95
C      14.86       2.57      20.22
C      14.68       2.59      21.58
C      13.80       3.56      22.19
C      13.22       4.56      21.36
C      13.40       3.50      23.53
C      13.80       4.47      17.16
C      11.96       4.17      25.40
C      11.47       6.76      23.95
C      15.45       1.58      22.37
H      12.54       6.21      17.08
H      11.23       7.37      21.51
H      11.53       7.27      19.07
H      13.70       2.68      24.18
H      15.53       1.83      19.78
H      15.06       2.75      17.50
O      12.35       3.13      26.00
O      11.01       4.95      25.81
H       9.81       7.68      24.05
O      13.57       5.52      15.06
O      14.92       3.71      15.21
H      16.24       1.28      24.06
O      12.07       7.59      24.60
O      10.15       6.86      23.63
O      15.76       0.47      21.96
O      15.80       2.02      23.60
C      14.09       4.57      15.70
