22

H      13.81      14.67      19.59
H       9.87      12.15      21.09
C      12.43      13.81      17.48
C      11.25      13.02      23.19
H      11.65      14.38      16.97
H      12.52      12.86      16.94
H      13.38      14.35      17.42
H      11.05      13.96      23.72
H      12.07      12.53      23.73
H      10.36      12.38      23.27
O       8.99      11.57      19.03
O      10.07      12.44      17.23
C       9.93      12.25      18.48
C      13.71      14.63      22.19
O      13.46      14.63      23.44
O      14.74      15.15      21.65
C      10.95      12.86      19.40
C      12.71      13.98      21.28
C      12.08      13.58      18.93
C      11.59      13.25      21.75
C      12.93      14.11      19.90
C      10.74      12.71      20.77
