24

O       3.40       9.62       5.37
O       2.14      11.19       6.28
C       1.60       7.55       6.91
C      -1.59       9.90       2.58
C       0.78       8.15       5.79
C      -0.78       9.30       3.69
C      -0.35       7.49       5.27
C       0.32       9.98       4.25
C      -1.07       8.03       4.21
C       1.10       9.40       5.24
N      -0.81       6.20       5.86
N       0.65      11.36       3.81
N      -2.17       7.20       3.63
N       2.32      10.13       5.68
O       1.58       6.28       6.98
O       2.22       8.37       7.65
O      -1.00      10.74       1.84
O      -2.80       9.51       2.50
O      -1.28       6.26       7.00
O      -0.72       5.21       5.13
O      -0.15      12.24       4.12
O       1.72      11.49       3.21
O      -1.97       6.78       2.49
O      -3.14       7.00       4.35
