27

C       5.29       0.65       7.66
H       6.02      -4.12       6.44
O       5.59       4.63       6.34
C       4.18       0.30       8.44
H       4.33      -2.30       6.82
O       3.50       5.09       7.05
C       3.13       1.20       8.65
O       4.07      -0.92       9.08
C       3.20       2.48       8.10
O       8.02      -5.41       6.95
C       5.04      -1.89       8.82
O       8.57      -5.45       9.15
C       5.94      -2.21       9.84
C       6.86      -3.23       9.62
C       6.90      -3.92       8.40
H       5.91      -1.67      10.78
C       5.99      -3.57       7.39
C       5.05      -2.57       7.60
H       6.21       2.24       6.54
C       7.91      -5.01       8.19
H       6.10      -0.05       7.49
H       2.28       0.89       9.25
H       2.41       3.20       8.28
C       4.49       4.27       6.86
C       5.34       1.94       7.12
C       4.32       2.87       7.34
H       7.57      -3.52      10.40
