26

H       5.73      19.51      12.98
H       5.82      21.47      14.50
H       4.34      17.06      16.25
H       2.98      14.40      12.46
H       6.96      15.46      11.24
H       6.90      17.42      12.78
C       4.97      13.67      10.81
C       5.03      21.62      17.08
C       5.43      19.40      14.02
C       5.47      20.50      14.87
C       5.05      20.40      16.20
C       4.64      19.15      16.67
C       4.63      18.03      15.84
C       5.00      18.15      14.49
C       3.86      16.10      13.47
C       3.85      15.05      12.56
C       4.97      14.81      11.76
C       6.08      15.66      11.85
C       6.04      16.75      12.72
C       4.95      16.99      13.57
Br       4.11      18.93      18.49
Br       2.28      16.31      14.54
O       3.85      13.17      10.50
O       6.16      22.06      17.44
O       6.10      13.28      10.37
O       3.89      22.09      17.37
