18

O      22.76       9.96      22.80
N      19.20      14.92      19.12
H      19.04      15.80      18.64
H      18.45      14.50      19.65
C      21.62      10.40      22.43
C      20.49      14.65      19.46
O      20.46      17.04      17.87
S      23.14      14.73      19.60
S      20.09      12.26      21.06
H      23.72      12.08      21.46
O      22.75      17.14      18.00
C      21.61      16.60      18.25
C      22.70      12.35      21.20
C      21.61      15.38      19.04
C      21.61      11.62      21.62
C      22.31      13.46      20.42
C      20.91      13.54      20.25
O      20.48       9.88      22.70
