16

O      17.28       6.55      30.93
H      14.03       8.54      29.37
O      14.99       6.48      30.82
S      14.65      11.26      27.61
S      17.68       8.96      29.37
F      18.53      11.71      27.63
C      16.17      13.25      26.41
C      16.13       6.99      30.56
O      17.30      13.78      26.15
C      17.25      11.34      27.77
C      15.05       8.88      29.22
C      16.17      12.03      27.23
C      16.15       8.22      29.75
C      15.46      10.02      28.50
C      16.86      10.20      28.49
O      15.01      13.67      26.04
