20

H       2.93      21.12       9.18
H       1.15      21.14       9.18
H       1.12      18.95      10.43
H       2.90      18.94      10.45
C       2.05      19.03      13.95
C       2.01      24.12      11.01
C       2.04      22.85      11.80
C       2.01      20.35      13.24
C       2.04      21.62      11.16
C       2.03      21.59      13.92
C       2.01      20.41      11.86
C       2.03      22.82      13.21
C       2.04      20.95       9.80
C       2.01      19.57      10.59
Br       1.97      21.60      15.81
Br       2.09      24.46      14.16
O       1.11      18.22      13.68
O       3.02      18.82      14.73
O       1.03      24.91      11.21
O       2.94      24.30      10.17
