42

N      -2.56      -4.13      10.92
N      -2.81      -3.02      10.16
H       1.35      -1.96      15.46
H      -0.72       1.71      14.49
H       0.09       2.70      16.62
N       0.34       3.07      23.05
H      -2.47      -0.94      10.43
N       0.97       4.17      22.50
H      -0.09       1.12      22.33
O       2.35      -1.15      17.68
O      -1.60      -4.73      12.92
H       3.52       0.51      18.20
H       4.35      -0.79      17.30
H       4.10      -2.30      19.30
H       5.02      -0.84      19.71
H       3.31      -0.97      20.19
H      -1.48      -3.64      14.69
H       0.06      -3.87      13.83
H      -0.02      -6.34      14.32
H      -0.10      -5.40      15.83
H      -1.58      -6.13      15.15
H       1.96       4.53      20.65
C       1.37       3.85      21.26
C       0.99       2.53      20.94
C      -1.97      -3.75      12.06
C      -1.81      -2.33      12.08
C       1.07      -0.94      15.71
C       0.19      -0.23      14.87
C      -0.09       1.13      15.16
C       0.37       1.68      16.34
C       1.13       0.93      17.27
C       1.56      -0.37      16.88
C      -0.48      -0.89      13.81
C       1.29       1.42      18.58
C       1.17       1.89      19.70
C      -2.39      -1.94      10.85
C      -1.14      -1.53      13.01
C       0.35       2.09      22.12
C       3.62      -0.58      18.09
C       4.03      -1.21      19.40
C      -0.88      -4.36      14.12
C      -0.63      -5.64      14.89
