22

O       9.12       7.50       6.67
O       9.18       1.93       2.66
O       8.70       3.11       0.78
O       8.84       8.85       4.86
H      10.21       3.45       4.23
H       6.89       4.38       0.87
H       5.27       6.20       0.51
H       5.23       8.18       2.03
H       6.85       8.35       3.87
H      10.22       5.46       5.70
C       8.87       3.00       2.04
C       6.89       5.25       1.53
C       5.98       6.26       1.33
C       5.97       7.39       2.18
C       6.87       7.48       3.22
C       7.82       6.46       3.46
C       7.83       5.30       2.60
C       8.74       4.23       2.89
C       9.55       4.29       4.01
C       9.56       5.42       4.84
C       8.74       6.50       4.56
C       8.90       7.71       5.43
