28

N       3.45       2.55      20.91
N       2.33       3.40      20.91
N       3.43       2.48      15.66
H       2.64       4.37      20.85
H       1.77       3.18      20.08
H       4.11       0.45      26.37
H       4.57       0.23      23.91
H       2.43       3.95      23.36
H       2.06       4.01      25.77
H       4.56       0.25      17.90
H       4.15       0.56      15.46
H       2.74       4.41      16.02
H       3.13       4.31      18.46
C       3.77       1.19      25.66
C       4.03       1.09      24.31
C       3.59       2.09      23.42
C       2.84       3.14      23.96
C       2.61       3.18      25.33
C       3.97       1.93      22.02
C       4.12       2.01      19.82
C       3.86       2.24      18.41
C       4.16       1.19      17.53
C       3.94       1.35      16.17
C       3.14       3.50      16.48
C       3.34       3.43      17.86
N       3.08       2.24      26.19
N       4.93       1.09      21.63
N       5.01       1.13      20.27
