20

H      10.04       3.73       8.91
H      11.92       4.12      11.03
H      10.13       5.98      12.23
H      11.39       8.07      10.76
H       9.54       7.66       8.63
H      11.36       5.81       7.47
O       7.32       5.45      11.16
O      14.15       7.26       9.59
O      14.12       4.99       9.45
O       7.36       5.42       8.88
C      11.36       4.90      10.51
C      10.37       4.69       9.32
C       9.39       5.73       9.99
C      13.54       6.12       9.58
C      10.40       5.94      11.17
C      11.09       7.10      10.36
C      10.09       6.88       9.17
C      11.06       5.84       8.52
C      12.07       6.06       9.73
C       7.92       5.52      10.02
