16

C      12.43       9.68      13.03
C      13.48       6.65      11.37
C      11.26       9.05      13.46
O      10.22      10.81      14.60
C      12.67       7.53      12.13
C      13.24       8.80      12.27
O       9.20       8.76      14.53
C      14.64       7.28      10.93
C      15.75       6.75      10.12
O      16.69       7.59       9.86
Cl      12.90      11.29      13.35
Cl      13.01       5.04      11.05
O      15.68       5.54       9.74
S      11.16       7.39      12.93
S      14.75       8.94      11.46
C      10.15       9.58      14.26
