20

H      15.24       4.10       5.88
H      14.33       5.61       5.84
H      18.50       5.67       6.09
H      17.63       4.12       6.06
H      15.52       7.72       5.90
H      17.29       7.73       6.03
C      15.24       5.12       5.47
C      17.66       5.13       5.63
C      16.44       7.22       5.55
H      17.74       4.10       3.69
H      18.66       5.61       3.73
N      16.41       5.83       6.06
H      15.36       4.12       3.51
H      14.49       5.66       3.47
N      16.58       5.83       3.50
H      17.46       7.72       3.67
H      15.70       7.73       3.54
C      17.75       5.12       4.09
C      15.33       5.13       3.93
C      16.55       7.22       4.01
