17

S      31.84      19.66      27.59
H      29.73      21.42      29.41
S      28.30      18.06      29.15
C      27.31      20.28      30.46
O      33.79      18.31      26.01
O      32.82      16.23      25.95
O      30.34      16.03      27.29
C      30.62      17.33      27.55
C      29.53      20.38      29.19
C      31.76      17.99      27.10
C      28.39      19.73      29.64
C      30.34      19.51      28.43
C      29.80      18.21      28.32
H      29.50      15.79      27.71
O      26.34      19.49      30.72
O      27.44      21.50      30.84
C      32.87      17.46      26.30
