20

H       1.54      -0.14       1.71
H       5.11       0.19      -1.75
H       1.46      -1.60      -0.31
H       5.19       1.65       0.27
C       3.26      -3.12      -4.50
C       3.34       3.17       4.46
C       2.27      -0.89      -0.17
C       4.38       0.94       0.14
C       3.28      -0.80      -1.16
C       3.37       0.85       1.12
C       4.33       0.13      -0.98
C       2.31      -0.08       0.95
C       3.25      -1.62      -2.31
C       3.40       1.67       2.27
C       3.40       2.37       3.27
C       3.24      -2.31      -3.31
O       2.14      -3.43      -5.01
O       4.45       3.51       4.99
O       4.41      -3.43      -4.95
O       2.18       3.47       4.88
