20

C      15.53      10.06      28.53
C      16.93      10.26      28.57
S      14.74      11.30      27.64
S      17.72       9.03      29.48
S      19.04      11.92      27.85
H      14.08       8.56      29.34
H      19.95      10.92      26.21
C      16.20      13.26      26.42
C      16.16       7.01      30.57
O      17.30      13.70      25.96
O      15.03      13.73      26.20
O      17.29       6.61      31.02
O      15.02       6.45      30.72
O      19.48      11.77      26.30
O      19.14      13.30      28.18
O      19.75      10.90      28.59
C      17.34      11.41      27.85
C      15.10       8.91      29.23
C      16.25      12.07      27.28
C      16.19       8.26      29.78
