50

H       5.47       7.45      11.83
H       3.70       3.79      18.75
H       5.83       8.83      16.42
H       3.34       2.42      14.16
H       1.67       3.86      11.46
H       0.86       1.73      10.45
H       2.41      -0.21      10.21
H       4.76      -0.01      10.99
H       5.56       2.12      12.01
H       3.60       9.13      18.57
H       4.40      11.25      19.59
H       6.75      11.45      20.37
H       8.30       9.52      20.13
H       7.49       7.38      19.13
C       5.49       7.93      15.91
C       3.68       3.31      14.68
C       4.52       5.77      20.32
C       4.65       5.48      10.26
C       4.14       4.37      12.48
C       5.03       6.87      18.10
C       4.62       5.48      11.77
C       4.55       5.77      18.82
C       5.08       6.62      12.42
C       4.08       4.63      18.16
C       5.07       6.71      13.82
C       4.10       4.53      16.77
C       4.59       5.60      14.58
C       4.57       5.65      16.00
C       4.14       4.42      13.90
C       5.03       6.82      16.68
C       5.50       7.87      14.54
C       3.66       3.37      16.04
C       3.67       3.13      11.80
C       2.35       3.01      11.35
C       1.90       1.82      10.78
C       2.76       0.73      10.65
C       4.08       0.84      11.09
C       4.53       2.03      11.65
C       5.50       8.11      18.79
C       4.63       9.21      18.93
C       5.08      10.41      19.50
C       6.40      10.52      19.93
C       7.27       9.43      19.80
C       6.82       8.23      19.24
Br       6.13       9.41      13.59
Br       3.04       1.84      16.99
O       5.64       5.77      20.92
O       3.53       5.47       9.66
O       5.80       5.52       9.72
O       3.37       5.73      20.86
