24

C      -0.88       8.93       3.95
N      -3.72       9.22       1.62
H      -1.66      12.62       4.57
C      -0.34       9.64       5.01
N      -4.63       6.05      -0.58
H      -2.76      11.46       2.67
C      -2.53       8.79       2.10
N      -2.83       3.90      -0.80
H      -0.63       7.89       3.80
C      -3.20       7.24       0.87
H       0.33       9.16       5.72
C      -3.44       6.05       0.07
H      -1.59       5.00       0.47
C      -2.55       4.97      -0.05
H      -4.25       3.04      -2.06
C      -4.01       3.91      -1.45
H      -5.87       5.00      -1.87
C      -4.91       4.98      -1.34
C      -1.47      11.57       4.38
N      -0.64      10.94       5.24
C      -2.07      10.92       3.32
N      -2.17       7.56       1.67
C      -1.81       9.56       3.10
N      -4.14       8.21       0.84
