26

O       1.63       6.54       0.63
O       2.72       7.69      -1.00
O       7.47       2.70      -0.97
O       6.29       1.64       0.65
H       2.80       4.61      -1.87
H       2.21       4.06      -0.30
H       3.82       2.35      -0.31
H       4.41       2.93      -1.87
H       4.76       3.28       1.82
H       6.05       4.48       1.79
H       3.18       5.00       1.82
H       4.48       6.20       1.76
H       4.65       6.34      -1.98
H       5.33       7.01      -0.51
H       6.93       5.31      -0.47
H       6.26       4.66      -1.96
C       2.60       6.72      -0.18
C       6.50       2.61      -0.16
C       3.11       4.37      -0.84
C       4.18       3.24      -0.84
C       5.48       3.74      -0.16
C       5.13       4.16       1.28
C       4.08       5.29       1.27
C       3.69       5.64      -0.18
C       4.93       6.09      -0.95
C       6.00       4.96      -0.94
