16

C       2.89      -2.68       7.24
C       1.84      -4.72       5.59
C       3.70      -3.73       6.80
C       1.04      -3.67       6.03
O      -0.64      -1.67       6.89
H       4.74      -3.75       7.11
O       5.38      -5.73       5.95
H      -0.00      -3.65       5.73
O       1.05      -0.51       7.81
C       0.58      -1.56       7.20
O       3.69      -6.89       5.03
C       4.16      -5.85       5.63
O       3.47      -1.75       8.06
C       1.53      -2.64       6.84
O       1.27      -5.65       4.78
C       3.21      -4.76       5.99
