34

H      18.60      16.88       3.44
H      14.52      12.30       0.08
H      14.50      14.82      -3.44
H      18.58      19.40      -0.08
H      20.63      20.67       3.47
H      12.47      11.03      -3.47
C      20.02      18.53       5.03
C      19.67      18.74       3.59
C      18.90      17.79       2.92
C      13.10      10.25      -0.96
C      13.44      11.55      -1.62
C      14.21      12.50      -0.94
C      13.08      13.17      -5.03
C      13.43      12.96      -3.59
C      14.20      13.91      -2.92
C      20.01      21.45       0.96
C      19.66      20.14       1.62
C      18.89      19.20       0.94
C      20.05      19.91       2.94
C      18.50      18.01       1.58
C      17.68      17.07       0.91
C      16.95      16.28       0.32
C      13.05      11.78      -2.94
C      14.60      13.69      -1.58
C      15.42      14.62      -0.91
C      16.15      15.41      -0.32
O      19.61      17.44       5.57
O      20.67      19.46       5.61
O      13.51      10.07       0.23
O      12.44       9.42      -1.67
O      13.48      14.25      -5.57
O      12.43      12.23      -5.61
O      19.59      21.63      -0.23
O      20.66      22.28       1.67
