92

H       8.74      -0.23       5.72
H       3.56      -7.64       8.58
H       5.19      -7.68       9.25
H       4.24      -7.51      11.60
H       3.59      -8.92      10.75
H       2.60      -7.46      10.92
H       8.65      -2.01       5.56
H      10.77      -0.37       7.06
H      10.58      -2.11       7.27
H      11.04      -2.55       4.88
H       2.66      -2.82       2.42
H       3.94      -3.45       3.49
H       0.94      -4.08       3.71
H      12.35      -1.55       5.54
H       2.20      -4.77       4.75
H       2.79      -2.48       5.60
H       1.08      -2.83       5.89
H       1.55      -1.76       4.56
H       5.94      -3.32      12.42
H       5.91      -4.19      13.98
H       3.84      -3.01      14.65
H       3.94      -1.95      13.24
H       3.56      -3.87      11.70
H       2.25      -3.78      12.88
H      11.10      -0.81       4.52
H       3.51      -5.01      13.06
H       3.23      -5.35       9.61
H       6.35       0.16       5.99
H       5.02      -0.06       7.15
H       4.65       0.21       4.12
H       3.36       0.11       5.33
H       4.16       2.28       6.37
H       4.93      -5.40      10.15
H       3.73       2.51       4.67
H       5.44       2.39       5.14
H       8.58      -5.30      11.25
H       8.18      -3.59      10.98
H       9.97      -5.27       9.14
H       9.65      -3.54       8.97
H      10.83      -3.04      11.11
H      11.88      -3.97      10.02
H      11.10      -4.76      11.40
C       7.51      -3.80       7.27
C       5.83      -2.40       6.82
C       6.89      -4.13       8.71
C       5.09      -5.29       4.62
C       6.26      -1.22      11.13
C       5.47      -4.29       8.02
C       7.26      -2.25       7.53
C       6.10      -3.94       6.61
C       6.58      -2.57       8.92
C       5.70      -4.65       5.46
C       6.61      -1.83      10.12
C       4.65      -7.55       3.65
C       6.07       0.87      12.54
C       3.58      -5.92       2.63
C       6.37      -1.00      13.65
C       8.96      -1.19       6.23
C      10.44      -1.29       6.55
C      11.28      -1.56       5.30
C       4.22      -5.78       9.40
C       4.18      -7.29       9.43
C       3.62      -7.83      10.75
C       4.47      -6.15       3.70
C       2.95      -3.65       3.07
C       6.12      -0.52      12.34
C       1.92      -3.87       4.18
C       1.83      -2.67       5.11
C       5.63      -3.25      13.47
C       4.14      -2.98      13.59
C       3.32      -3.97      12.76
C       5.17      -2.75       8.21
C       5.32      -0.22       6.10
C       4.38       0.49       5.15
C       4.43       2.00       5.34
C       8.47      -4.52      10.48
C       9.77      -4.35       9.71
C      10.96      -4.01      10.61
Br       3.55      -2.03       8.90
Br       8.99      -4.68       6.42
Br       5.75      -8.61       4.73
Br       5.56       2.17      11.28
N       3.30      -7.08       1.97
N       6.57       0.03      14.49
N       3.95      -8.09       2.67
N       6.38       1.22      13.79
O       8.17      -1.23       7.45
O       6.44      -2.24      14.15
O       5.30      -1.64       5.81
O       7.35      -4.99       9.67
O       4.63      -5.36       8.08
O       3.01      -4.79       2.17
