13

C      -1.27       9.68      14.18
C      -3.02       8.49      11.16
O      -1.59       6.64      10.62
O      -3.53       6.91       9.49
C      -2.52       9.35      13.39
O      -0.21       9.03      13.93
H      -3.22       8.79      14.04
H      -3.01      10.28      13.05
O      -1.42      10.58      15.06
H      -2.88       9.36      10.51
H      -4.07       8.44      11.49
C      -2.67       7.23      10.37
O      -2.13       8.55      12.28
