37

C      19.79       4.54       8.04
C      20.98       3.78       8.07
C      21.85       4.54       8.87
Si      21.86      -0.04       5.97
C      22.01      -2.31       7.99
C      21.96      -1.39       7.18
C      19.66      -0.68       3.97
C      20.54      -0.41       4.78
H      22.09      -2.39      10.96
H      22.07      -5.26       7.71
H      19.55      -0.63       1.00
H      16.87      -1.64       4.25
H      26.98      -1.41       4.42
H      25.64       2.38       2.81
C      24.52       0.25       4.54
C      23.44       0.13       5.11
C      21.24       2.56       7.42
C      21.48       1.51       6.84
H      18.86       4.33       7.53
H      22.87       4.33       9.16
N      22.11      -5.42       9.82
N      22.12      -4.51      10.86
N      16.70      -1.64       2.13
N      17.55      -1.32       1.10
C      22.09      -3.28      10.33
C      22.06      -3.36       8.92
C      22.08      -4.74       8.66
N      27.44       1.27       2.67
C      18.73      -0.93       1.63
C      18.66      -0.99       3.04
C      17.35      -1.45       3.30
N      27.87       0.06       3.18
N      21.23       5.66       9.29
N      19.95       5.66       8.77
C      26.87      -0.46       3.91
C      25.76       0.41       3.89
C      26.18       1.48       3.09
