23

C       2.00       3.34       3.94
H       2.08       5.84       7.81
C       2.33       9.16       3.98
H       5.06       2.86       7.98
N       3.56       4.36       8.33
H       4.57       3.49       5.31
N       3.17       4.86       6.22
H       3.10       7.47       5.95
O       1.61       2.80       5.02
O       2.24       2.76       2.84
H       1.56       7.54       1.95
O       2.02       9.75       2.90
H       1.46       5.03       1.95
C       2.84       5.12       7.52
O       2.64       9.72       5.08
C       4.38       3.58       7.54
C       4.15       3.88       6.23
C       2.66       5.54       5.08
C       2.71       6.94       5.08
C       2.29       7.66       3.96
C       1.85       6.97       2.83
C       1.80       5.58       2.83
C       2.18       4.84       3.96
