48

C       1.23       9.16      14.11
C      -1.20       9.29      14.11
C       2.46       8.53       7.91
C       3.65       9.23       7.65
C       4.84       8.86       8.27
C       4.87       7.77       9.15
C       3.69       7.06       9.41
C       2.50       7.44       8.80
C      -2.44       9.87       7.93
C      -3.62       9.15       7.68
C      -4.81       9.49       8.32
C      -4.85      10.56       9.21
C      -3.69      11.30       9.46
C      -2.49      10.95       8.83
O       1.15       9.22      16.88
H       2.17       9.12      14.65
O      -1.13       9.25      16.87
H      -2.15       9.34      14.65
O       1.14       9.19       3.06
H       2.09       8.74       5.26
O      -1.14       9.29       3.06
H      -2.09       9.72       5.28
H       3.63      10.08       6.97
H       5.75       9.43       8.07
H       5.80       7.48       9.64
H       3.71       6.21      10.08
H       1.58       6.88       8.99
H      -3.59       8.31       6.99
H      -5.71       8.90       8.12
H      -5.78      10.83       9.71
H      -3.72      12.15      10.14
F       2.38       9.08      12.05
H      -1.59      11.53       9.02
F      -2.36       9.34      12.05
C       0.01       9.24      16.30
C       0.01       9.23      14.81
C       0.01       9.21      11.97
C       0.01       9.21      10.57
C       0.01       9.21       9.35
C       1.21       8.91       7.22
C      -1.19       9.52       7.23
C       1.19       8.96       5.83
C      -1.18       9.50       5.83
C       0.00       9.23       5.13
C       0.01       9.21       7.94
C      -0.00       9.24       3.64
C       1.20       9.15      12.73
C      -1.18       9.28      12.73
