30

H      18.55      12.17      10.79
H      22.71      10.24      12.10
O      27.31      11.64       8.99
O      13.83      11.46      10.33
O      27.30      10.15      10.73
H      16.06      12.12      10.95
H      25.19      10.18      11.91
O      13.72       9.81       8.76
H      20.53      11.04      11.18
H      18.40       9.20       7.67
H      22.48      11.70       8.04
H      15.91       9.15       7.86
H      20.53      10.40       8.17
F      24.99      11.75       7.66
C      26.73      10.90       9.86
C      14.35      10.63       9.51
C      15.84      10.62       9.42
C      16.59      11.47      10.25
C      17.98      11.49      10.17
C      18.65      10.67       9.24
C      17.89       9.84       8.40
C      16.50       9.80       8.50
C      23.05      11.35       8.90
C      24.43      11.34       8.83
C      24.58      10.52      11.08
C      23.19      10.55      11.18
C      22.40      10.94      10.08
C      20.11      10.67       9.14
C      20.95      10.91      10.17
C      25.24      10.93       9.90
