36

H       9.35       8.92      16.11
H       6.23       7.93      22.33
H       5.11       6.84      13.08
H      10.52       9.98      25.33
H       4.63       6.60      16.01
H      10.98      10.21      22.39
C       7.17       7.34      12.21
C       8.45       9.50      26.21
C       6.28       7.20      14.52
C       9.34       9.62      23.89
C       6.36       7.33      15.94
C       9.24       9.50      22.48
C       7.49       7.93      16.51
C       8.10       8.91      21.91
C       8.51       8.40      15.66
C       7.08       8.44      22.78
C       8.44       8.22      14.29
C       7.17       8.61      24.14
C       7.32       7.60      13.67
C       8.29       9.23      24.75
C       7.94       8.67      20.47
C       7.62       8.19      17.95
Br       9.82       9.09      13.28
Br       5.79       7.75      25.17
N       8.44       9.21      18.31
N       7.10       7.67      20.11
N       8.61       9.46      19.59
N       6.93       7.42      18.83
O       5.96       7.26      11.78
O       9.67       9.56      26.64
O       8.20       7.17      11.49
O       7.43       9.68      26.93
O       5.11       6.68      14.08
O      10.51      10.13      24.33
O       5.29       6.91      16.66
O      10.30       9.91      21.75
