46

C       4.74      26.95      23.91
H       6.73      23.55      21.36
C       7.48      24.54      24.47
H       2.64      25.85      22.77
C       2.02      22.15      21.83
H       2.82      23.17      19.20
N       7.21      25.32      23.25
H       6.39      19.73      19.22
N       2.18      23.58      21.59
O       3.59      15.68      13.99
H       6.75      19.56      16.80
H       6.36      21.45      20.97
H       6.81      17.69      15.14
O       5.86      15.84      13.83
H       2.60      17.07      15.69
H       2.53      18.91      17.36
O       5.86      27.48      24.24
O       3.60      27.32      24.34
F       2.65      21.45      17.32
H       7.25      26.31      23.51
H       8.50      24.75      24.81
H       7.40      23.47      24.25
H       6.77      24.78      25.29
H       1.50      24.17      22.10
H       1.92      21.57      20.90
H       1.13      21.98      22.45
H       2.89      21.74      22.38
C       4.72      16.17      14.31
C       5.94      25.06      22.66
C       5.83      24.00      21.76
C       4.61      23.53      21.26
C       3.43      24.14      21.75
C       3.54      25.33      22.49
C       4.76      25.79      22.98
C       3.61      22.42      19.23
C       3.64      21.43      18.27
C       4.63      20.43      18.21
C       5.62      20.50      19.21
C       5.60      21.47      20.20
C       4.60      22.46      20.24
C       5.84      19.00      16.57
C       5.88      17.96      15.64
C       4.71      17.27      15.32
C       3.50      17.62      15.94
C       3.47      18.65      16.87
C       4.64      19.36      17.20
