36

H       9.29       5.56      18.77
H       9.29       3.07      18.77
H      12.35       5.56      15.75
H      12.35       3.07      15.74
H      12.97       1.24      17.26
H       8.67       1.24      17.26
H       9.29      -5.56      15.75
C       9.95       5.00      18.10
C       9.95       3.61      18.10
C      11.69       5.00      16.41
C      10.82       5.71      17.26
H       9.29      -3.07      15.74
C      10.82       1.42      17.26
C      12.03       0.70      17.25
C       9.61       0.70      17.27
H      12.35      -5.56      18.77
H      12.35      -3.07      18.77
C       9.95      -3.61      16.42
H       8.67      -1.24      17.26
C      11.69       3.61      16.42
H      12.97      -1.24      17.26
C      10.82       2.89      17.26
C       9.95      -5.00      16.41
C      11.69      -3.61      18.10
C      10.82      -2.89      17.26
C      10.82      -1.42      17.26
C       9.61      -0.70      17.25
C      12.03      -0.70      17.27
C      10.82      -5.71      17.26
C      10.82      -7.20      17.26
C      10.82       7.20      17.26
O      11.63      -7.78      18.06
C      11.69      -5.00      18.10
O      10.01      -7.78      16.46
O      10.01       7.78      18.06
O      11.63       7.78      16.46
