40

H      -4.44      10.70       8.95
H      -5.33      13.00       8.97
H      -5.06      15.35       9.62
H      -2.28      16.45      12.74
H      -0.73      14.74      13.67
H       0.20      12.45      13.61
N      -4.10      19.74      11.11
N      -5.32      19.35      10.57
H       1.84       8.72      11.35
N       1.56       7.18       9.93
N      -6.47      17.34      10.03
N       0.49       6.70       9.24
H      -2.41      18.69      11.82
H      -6.59      16.41      10.42
H      -7.33      17.88      10.14
H      -1.57       7.17       9.15
H       0.33      10.23      12.48
H      -2.63       9.15       9.53
C      -0.60       7.40       9.59
C      -0.25       8.39      10.53
C      -0.56      10.47      11.90
C      -1.04       9.55      10.95
C      -2.23       9.85      10.27
C      -2.86      11.09      10.40
C      -2.30      12.07      11.28
C      -1.17      11.72      12.08
C      -4.00      11.45       9.60
C      -4.49      12.73       9.61
C      -3.90      13.74      10.44
C      -2.83      13.39      11.30
C      -2.24      14.38      12.15
C      -1.16      13.99      13.00
C      -0.64      12.72      12.97
C      -4.32      15.08      10.38
C      -3.74      16.08      11.19
C      -3.41      18.63      11.40
C      -2.72      15.70      12.09
C      -4.15      17.47      11.07
C      -5.35      18.00      10.55
C       1.13       8.19      10.72
