24

C      -7.96      -8.35      17.70
C      -9.05      -9.09      22.15
O      -9.11      -7.87      12.11
O      -9.18      -7.93      24.14
O      -8.90     -10.15      12.15
H     -10.98     -10.29      18.98
H      -7.10      -7.80      17.31
H     -11.10      -7.99      17.32
H      -6.99     -10.10      18.97
H      -8.93     -11.35      17.33
H      -9.15      -6.73      18.96
O      -8.97     -10.21      24.17
C      -9.03      -8.99      14.14
C      -9.10      -7.75      18.59
C      -8.98     -10.33      17.70
C      -9.04      -9.03      19.52
C      -9.04      -9.05      16.77
C      -9.04      -9.06      20.93
C      -9.04      -9.02      15.35
C      -9.07      -9.08      23.59
C      -9.01      -9.00      12.70
C     -10.18      -8.45      17.70
C      -7.90      -9.63      18.59
C     -10.12      -9.74      18.59
