22

C       1.12       6.99       3.32
C      -1.51       4.00      -0.77
N      -1.58       5.48       1.20
N       1.19       5.62       1.28
C      -0.96       6.18       2.17
C       0.57       4.94       0.29
C       0.45       6.23       2.23
C      -0.84       4.83       0.28
H      -1.37       7.93       3.33
H      -2.81       6.96       2.97
H      -1.64       6.41       4.19
H       1.43       5.08      -1.64
H       2.38       4.12      -0.52
H       0.89       3.44      -1.21
H       0.60       6.84       4.28
H       2.17       6.71       3.45
H       1.09       8.07       3.11
H      -1.06       2.99      -0.79
H      -2.58       3.88      -0.59
H      -1.36       4.42      -1.77
C      -1.75       6.91       3.22
C       1.36       4.35      -0.82
