46

H       4.36       5.02      23.84
H       6.97       5.92      20.01
H       7.26       6.23      17.58
C       5.05       2.95      25.40
C       8.35       0.69      22.19
C       9.43       1.22      23.12
C      10.15       0.08      23.84
C       4.45       6.76      21.90
C       2.93       6.74      22.02
C       2.40       8.07      22.54
H       8.79       0.05      21.42
H       7.60       0.08      22.74
H      10.14       1.82      22.53
H       8.99       1.91      23.86
O       4.19       3.75      25.92
O       5.45       1.87      25.97
H       9.44      -0.54      24.41
H       6.76       2.00      16.97
H      10.90       0.45      24.55
O       7.02       5.50      15.17
H      10.66      -0.58      23.12
H       4.77       7.59      21.25
H       4.93       6.89      22.88
H       2.52       6.52      21.03
H       2.62       5.91      22.67
H       2.80       8.31      23.54
H       1.30       8.05      22.63
H       2.67       8.90      21.87
O       7.67       1.72      21.44
O       4.97       5.59      21.25
O       7.97       3.45      15.05
H       6.80       1.51      24.00
H       6.31       1.71      19.39
C       7.01       4.14      17.11
C       6.77       2.86      17.64
C       6.54       2.70      19.00
C       6.58       3.80      19.89
C       6.88       5.06      19.35
C       7.05       5.24      17.98
C       6.80       2.54      22.09
C       7.33       4.36      15.68
C       6.43       2.35      23.42
C       5.06       4.36      23.34
C       5.43       4.54      22.01
C       6.28       3.63      21.33
C       5.55       3.25      24.04
