36

C       9.94       2.47       8.25
H       9.87      -3.53      16.66
H       9.87       3.53       8.00
C      10.11       0.25      15.74
C      10.11      -0.25       8.92
H      10.15       1.30      15.46
H      10.15      -1.30       9.20
C       6.03       0.18      13.08
C       6.03      -0.18      11.59
H       6.11       1.26      13.21
H       6.11      -1.26      11.45
C      10.96      -1.67      16.91
C      10.96       1.67       7.76
H       5.07      -0.15      13.49
H       5.07       0.15      11.17
C      11.06      -0.30      16.57
C      11.06       0.30       8.09
H      11.69      -2.11      17.59
H      11.69       2.11       7.07
C       8.10       0.12      14.38
C       8.10      -0.12      10.28
H      11.87       0.31      16.97
H      11.87      -0.31       7.69
N       7.08      -0.48      13.83
N       7.08       0.48      10.83
H       8.20       1.20      14.20
H       8.20      -1.20      10.46
H       7.01      -1.50      14.02
H       7.01       1.50      10.64
C       9.06      -0.54      15.20
C       9.06       0.54       9.46
O       8.03      -2.69      15.00
O       8.03       2.69       9.66
C       8.97      -1.94      15.52
C       8.97       1.94       9.14
C       9.94      -2.47      16.41
