13

H       9.93       0.99      12.35
O       8.88       4.87      10.37
H      10.70       2.38      10.51
H      10.56       2.15      13.56
C      10.48       3.26      11.15
O       7.51       2.48      13.69
O       8.59       0.69      14.58
H      11.39       3.52      11.71
C       9.70       1.91      12.92
C      10.08       4.42      10.26
O      10.98       4.82       9.49
C       8.49       1.67      13.80
O       9.41       2.97      12.03
