28

O      27.17      20.34      18.67
H      26.97      17.93      18.47
O      27.65      21.41      16.71
H      26.97      15.73      17.27
H      27.85      19.95      14.78
H      27.85      17.76      13.57
H      26.97      11.90      15.17
H      26.97       9.71      13.96
H      27.85      13.93      11.47
H      27.85      11.73      10.27
C      27.41       9.29      11.33
C      27.41      20.37      17.41
C      27.41      19.06      16.69
C      27.16      17.87      17.40
C      27.16      16.66      16.73
C      27.41      16.60      15.34
C      27.66      17.80      14.64
C      27.66      19.02      15.31
C      27.41      15.36      14.66
C      27.41      14.29      14.08
C      27.41      13.05      13.40
C      27.16      11.85      14.10
C      27.16      10.64      13.43
C      27.41      10.59      12.05
C      27.66      11.78      11.34
C      27.66      13.00      12.01
O      27.17       8.24      12.03
O      27.65       9.31      10.07
