18

O       6.29       7.58       1.32
O       4.01       7.56       1.39
C       5.35      10.26       5.43
C       5.22       8.70       3.08
C       4.13       9.98       4.79
H       7.35       8.48       3.30
H       3.09       9.04       3.15
H       7.43       9.88       5.40
C       5.43      11.13       6.65
C       6.45       8.93       3.72
C       4.05       9.23       3.63
C       6.50       9.70       4.88
C       5.16       7.88       1.83
N       2.86      10.44       5.36
O       6.58      11.43       7.09
O       2.37       9.72       6.25
O       2.33      11.44       4.87
O       4.31      11.49       7.13
