17

C      16.30       4.16      19.42
C      18.15       5.31      21.19
C      16.16       5.52      19.82
C      18.30       3.97      20.79
H      14.63       5.77      18.75
C      17.08       6.08      20.72
C      17.38       3.41      19.93
O      14.42       4.29      17.99
O      15.47       2.28      18.25
C      15.35       3.53      18.50
H      19.14       3.39      21.17
H      16.97       7.11      21.03
H      17.46       2.37      19.61
C      19.14       5.93      22.12
O      15.17       6.32      19.38
O      20.20       5.25      22.36
O      18.86       7.07      22.61
