46

C       3.39       6.83      15.14
C      -1.64       8.41      15.67
C       3.10       4.88      16.67
C       2.96       4.68      19.14
C      -1.49       8.61      13.20
C       4.17       3.81      19.47
C      -2.71       9.49      12.87
N       0.19       5.36      17.70
N       1.27       7.93      14.64
N      -1.31       6.99      15.97
N       2.77       6.30      16.37
N       2.42       4.34      17.82
N      -0.96       8.95      14.52
O       4.72       4.09      20.77
O      -3.26       9.20      11.57
H       0.69       3.47      18.54
H       0.77       9.82      13.80
H       0.79       3.62      16.75
H       0.68       9.68      15.59
H      -1.70       4.75      18.50
H       3.17       8.54      13.84
H      -1.43       4.41      16.77
H       2.89       8.88      15.57
H      -3.02       6.32      17.09
H       4.48       6.98      15.25
H      -1.77       7.20      18.00
H       3.23       6.09      14.34
H      -2.73       8.52      15.51
H       4.19       4.77      16.83
H      -1.37       8.98      16.56
H       2.83       4.31      15.78
H       3.22       5.75      19.23
H      -1.76       7.54      13.11
H       2.17       4.52      19.89
H      -0.71       8.77      12.45
H       4.95       3.92      18.69
H      -3.49       9.37      13.65
H       3.88       2.75      19.49
H      -2.42      10.54      12.85
H       4.91       5.04      20.83
H      -3.45       8.25      11.51
C       1.00       4.13      17.70
C       0.47       9.16      14.64
C      -1.26       5.14      17.57
C       2.72       8.15      14.77
C      -1.93       6.46      17.20
