56

C       1.06      15.01       2.41
C       0.02      14.17       2.30
C       1.68      15.59       1.17
C       2.66      14.86       0.46
C       3.25      15.43      -0.73
C       0.29      17.63       1.42
C      -0.10      18.86       0.97
C       0.48      19.42      -0.20
C       1.44      18.72      -0.90
C       1.01      16.12      -5.07
C       1.55      16.46      -3.84
C       4.08      16.65      -7.27
H       4.71      17.19      -4.82
H       4.97      18.59      -3.17
H       4.95      18.36      -1.33
H       4.70      15.10      -2.31
H       5.40      12.87      -1.51
H       4.38      11.90       0.55
H       2.65      13.15       1.79
H       4.56      16.48       5.16
H       3.62      15.88       2.95
O      -0.72      15.17       7.12
O       0.84      16.08       8.43
O       3.32      16.48       7.42
O       5.26      17.13      -7.12
O       3.69      16.22      -8.43
O       1.21      15.82      -7.42
H      -0.44      13.71       3.17
H      -0.41      13.94       1.33
H      -0.17      17.20       2.31
H      -0.87      19.42       1.51
H       0.15      20.40      -0.55
H       1.89      19.15      -1.79
H      -0.03      15.81      -5.16
H       0.91      16.42      -2.95
H      -0.18      15.10       4.82
C       1.78      16.16      -6.26
C       3.15      16.56      -6.13
C       3.66      16.91      -4.87
C       2.89      16.88      -3.71
C       3.47      17.28      -2.41
C       4.52      18.12      -2.30
C       2.85      16.71      -1.17
C       1.88      17.43      -0.46
C       1.28      16.87       0.73
C       4.25      14.67      -1.42
C       4.64      13.43      -0.97
C       4.06      12.88       0.20
C       3.10      13.57       0.90
C       3.52      16.17       5.07
C       2.99      15.83       3.84
C       0.45      15.64       7.27
C       2.75      16.13       6.26
C       1.38      15.73       6.13
C       0.87      15.39       4.87
C       1.64      15.41       3.71
