34

H       3.70       7.16       7.27
H      -0.72       9.19       9.98
H       1.46       6.45       6.46
H       1.51       9.92      10.79
H       2.77      11.54      11.72
H       3.03      10.05      12.65
H       4.25      11.33      12.67
H       5.07       9.54      11.20
H       4.75      10.96      10.25
H      -0.05       6.33       4.60
H       0.20       4.83       5.52
H      -1.27       5.05       4.57
H      -1.77       5.40       6.99
H      -2.09       6.82       6.05
C      -2.49       7.87       8.57
C       5.47       8.49       8.69
C       3.98       8.56       8.87
C      -1.00       7.80       8.38
C       0.97       7.02       7.24
C       2.01       9.34      10.00
C      -0.41       6.99       7.35
C       3.39       9.37       9.89
C      -0.22       8.57       9.22
C       3.20       7.78       8.02
C       1.19       8.58       9.13
C       1.79       7.78       8.11
C       4.25      10.18      10.83
C       3.53      10.80      12.03
C      -1.27       6.18       6.41
C      -0.55       5.57       5.21
O      -2.99       9.03       8.70
O       5.97       7.32       8.58
O      -3.14       6.77       8.59
O       6.12       9.58       8.65
