22

H       2.70       1.72       5.10
H       1.39       0.62       3.33
H       8.41       2.16       3.64
C       4.58       3.06       6.15
C       7.51       0.80       1.67
C       3.18       1.46       4.16
C       2.44       0.86       3.17
C       3.02       0.61       1.91
C       4.37       0.88       1.69
C       5.21       1.32       2.77
C       4.56       1.73       3.99
C       5.31       2.41       5.01
C       6.67       2.58       4.85
C       7.33       2.07       3.72
C       6.63       1.43       2.70
Br       5.01       0.82      -0.09
Cl       7.62       3.47       5.99
Cl       1.99       0.03       0.66
O       3.67       3.89       5.81
O       4.91       2.76       7.35
O       8.44       1.54       1.19
O       7.34      -0.45       1.41
