16

F      21.69      27.74      15.05
F      25.94      24.63      13.68
F      23.11      26.71      16.94
F      24.53      25.66      11.79
C      23.02      26.77      13.31
C      24.61      25.60      15.43
C      22.73      26.98      14.67
C      24.91      25.39      14.07
C      23.50      26.42      15.69
C      24.14      25.95      13.04
O      22.56      27.11      11.01
O      21.21      28.09      12.56
O      26.42      24.28      16.17
C      22.20      27.37      12.20
O      25.08      25.26      17.72
C      25.44      25.00      16.53
