10

N       1.44       5.50       0.14
N      -1.31       5.56      -0.08
H      -1.34       3.75       0.97
H       1.47       7.31      -0.90
C       0.68       4.54       0.66
C      -0.55       6.52      -0.59
C      -0.71       4.54       0.56
C       0.84       6.51      -0.49
F       1.29       3.54       1.30
F      -1.16       7.51      -1.24
