22

O       9.44       9.23      23.43
O       7.25       8.64      23.42
C       7.61       9.90      20.66
C       9.90       7.01      21.34
C      10.64       6.08      20.64
C       8.35       8.97      18.53
C       7.61       9.90      19.24
C       9.13       7.99      19.22
C       9.89       7.01      18.53
C      10.63       6.08      19.23
H       9.90       6.99      22.43
H      11.22       5.33      21.18
H       9.89       7.00      17.44
H      11.22       5.34      18.68
C       8.33       8.97      17.03
C       8.34       8.95      22.86
Cl       6.71      11.12      18.39
Cl       6.72      11.11      21.51
O       7.24       8.66      16.47
O       9.43       9.24      16.45
C       8.35       8.96      21.35
C       9.13       7.99      20.66
