18

O      25.45      11.70      18.92
O      24.33      12.37      17.04
S      22.03      13.52      18.29
S      21.25      13.74      22.40
C      24.47      12.24      18.31
O      24.14      12.25      21.36
O      19.14      15.00      19.33
C      23.23      12.78      20.51
O      17.84      15.56      21.76
C      18.82      15.03      22.38
C      20.05      14.48      20.18
O      18.96      14.91      23.65
C      23.38      12.77      19.12
C      19.91      14.49      21.57
C      21.27      13.85      19.80
H      23.83      12.38      22.28
H      19.45      14.88      18.41
C      22.01      13.40      20.89
