38

I       8.05      -2.33      13.35
H       0.86      -7.19       8.86
H       1.13      -3.23      10.60
N      -0.30      -5.43       8.73
N      -0.22      -4.19       9.29
H      11.85      -7.47       9.15
N      13.36      -6.05       9.55
H       3.06      -7.58       9.50
H       3.06      -3.88      11.72
H       5.15      -3.06      12.76
H       9.77      -4.04      11.93
N      13.43      -4.89      10.29
H       9.72      -7.80       9.81
H       7.61      -8.97       9.41
H       5.14      -8.91       9.30
H      12.05      -3.83      11.48
C      11.34      -5.73      10.50
C       0.75      -6.16       9.17
C       0.88      -4.15      10.07
C      12.12      -6.55       9.67
C       1.55      -5.38      10.03
C       3.58      -6.83      10.10
C       2.89      -5.68      10.53
C       3.58      -4.75      11.33
C       4.96      -4.87      11.56
C       5.68      -5.97      11.01
C       4.96      -6.99      10.32
C       5.70      -3.87      12.28
C       7.06      -3.89      12.32
C       7.83      -4.92      11.66
C       7.09      -5.99      11.06
C       7.81      -7.06      10.43
C       7.06      -8.14       9.84
C       5.69      -8.10       9.79
C       9.22      -4.89      11.51
C       9.92      -5.88      10.81
C       9.20      -6.99      10.32
C      12.22      -4.70      10.86
