28

C       8.11       9.17       0.67
C       9.28       8.87       1.38
C       9.25       8.78       2.76
C       8.05       8.98       3.50
C       6.88       9.26       2.74
C       6.91       9.35       1.36
H      10.21       8.71       0.83
H       6.00       9.56       0.80
C       8.04       8.95       4.91
C       8.04       8.97       6.13
C       8.07       9.04       7.54
C       9.29       8.90       8.27
C       9.33       9.01       9.65
C       6.94       9.38       9.70
C       6.90       9.28       8.32
H      10.27       8.88      10.18
O       9.30       9.09      -1.37
O       7.05       9.40      -1.44
C       8.16       9.25      10.37
O       7.12       9.45      12.51
H       6.03       9.55      10.26
C       8.22       9.29      11.87
O       9.37       9.13      12.40
C       8.16       9.23      -0.83
Br       5.23       9.52       3.63
Br      10.86       8.35       3.66
Br       5.23       9.45       7.45
Br      10.90       8.55       7.35
