20

H      16.81      10.73      13.54
H      15.92      12.27      13.46
H      14.13      11.32      14.97
H      15.02       9.78      15.05
C      11.83       8.90      13.54
O      10.86       8.28      13.02
C      16.02      11.11      10.02
O      12.02       9.11      14.79
O      16.98      11.70      10.63
O      15.89      10.97       8.76
C      14.95      10.55      10.88
C      12.87       9.45      12.63
C      14.99      10.64      12.28
C      12.82       9.34      11.22
C      14.00      10.12      13.11
C      13.81       9.87      10.38
C      15.81      11.18      13.43
C      14.69      10.58      14.38
F      11.79       8.72      10.60
F      13.61       9.69       9.06
