29

C       3.03       5.77       6.72
H       6.44       5.64       3.50
C       3.44       5.88       8.05
C       1.74       6.34       6.69
H       3.59       2.39       3.60
C       5.83       3.28       2.31
H       2.43       3.49       5.47
H       4.35       5.58       8.54
C       6.15       1.91       2.19
H       2.41       6.76       9.73
C       6.39       3.87       1.17
S       5.64       7.27       5.61
H       1.07       6.49       5.85
N       2.44       6.48       8.72
H       5.94       1.10       2.88
N       1.40       6.78       7.91
H       7.38       2.90      -0.47
N       6.84       1.68       1.06
H       6.38       4.90       0.82
C       3.76       5.18       5.58
N       6.98       2.88       0.46
C       4.90       5.77       4.99
O       4.58       8.29       5.74
C       5.55       5.16       3.91
O       6.14       6.84       6.96
C       5.10       3.93       3.40
O       6.71       7.63       4.69
C       3.97       3.34       3.98
C       3.31       3.96       5.03
