17

C       6.70       8.32       3.63
C       7.43       9.11       2.75
H       5.76       6.94       5.87
H       4.20       5.93       3.40
C       5.48       7.49       1.73
H       6.93       8.36       4.69
O       3.29       4.77       5.31
O       4.44       5.12       7.20
H       8.20       9.80       3.11
C       6.26       8.30       0.92
H       6.13       8.33      -0.16
H       4.70       6.86       1.29
N       7.24       9.09       1.41
C       4.21       5.37       5.97
C       5.04       6.38       5.27
C       4.93       6.55       3.94
C       5.71       7.46       3.12
