10

C       7.27      17.10       9.09
C       2.55      12.38       9.08
O       7.08      18.08       9.88
O       2.74      11.40       8.29
C       6.25      16.08       9.09
C       3.57      13.40       9.08
C       5.38      15.22       9.09
C       4.43      14.26       9.09
O       8.25      16.91       8.30
O       1.57      12.57       9.87
