40

C      -9.21       8.89      14.63
C      -9.26       8.05      15.73
C     -10.42       7.29      16.01
C     -11.45       7.32      15.06
C     -11.40       8.16      13.95
H     -11.98       9.46      11.25
C     -11.56       5.61      20.00
C     -12.21       5.58      21.23
C      -9.53      11.18      12.60
C      -9.91       7.15      20.86
C     -10.58       7.15      22.08
C     -10.45       6.45      19.76
C     -10.67       6.63      17.28
C      -9.97       6.79      18.43
C     -11.78       6.45      22.28
C     -10.33      10.02      12.69
C     -14.02       6.70      23.52
C     -12.25       7.43      24.62
N     -10.95      11.27      10.91
N      -9.91      11.91      11.54
H      -8.31       9.49      14.45
H     -10.22       7.79      22.88
H      -9.05       7.39      18.42
H     -12.35       6.71      15.23
H     -11.96       5.01      19.18
H     -12.26       8.20      13.28
N     -13.35       4.79      21.39
H     -11.62       6.08      17.33
H     -14.72       6.28      22.82
H      -8.41       8.02      16.42
H      -9.03       7.78      20.73
N     -14.44       7.32      24.64
N     -13.35       7.77      25.31
H      -8.74      11.52      13.25
H     -11.27       7.69      25.01
H     -13.54       4.46      22.33
H     -13.48       4.06      20.69
C     -11.20      10.14      11.59
C     -12.61       6.75      23.44
C     -10.30       9.00      13.74
