100

H       5.39       8.40      21.90
H       6.40       3.87      15.67
H       6.63       3.67      18.17
H       5.09       8.62      24.42
H       3.50       3.95      30.80
H       3.27       8.49      16.71
H       3.89       8.06      15.11
H       2.20       8.58      15.29
H       2.31       6.10      15.02
H       1.68       6.51      16.61
H       7.93       1.83      25.28
H       7.30       0.69      24.04
H       7.05       0.38      27.09
H       6.40      -0.76      25.90
H       8.75      -1.21      25.04
H       8.63      -1.56      26.78
H       9.40      -0.06      26.22
H       4.32      -0.06      21.59
H       3.52       1.52      21.58
H       3.90      -0.23      24.09
H       3.07       1.32      24.05
H       1.35       0.36      22.43
H       1.40      -0.55      23.95
H       2.18      -1.21      22.50
H       1.69       4.92      28.10
H       2.70       5.15      26.67
H       1.73       3.67      26.83
H       3.09       2.93      28.79
H       4.12       3.15      27.38
H       4.66       9.22      30.31
H       3.90       8.37      31.67
H       5.04       9.71      31.98
H       6.13       7.51      32.41
H       6.91       8.30      31.05
H       8.35       5.71      28.30
H       7.87       6.44      26.76
H       9.04       7.27      27.80
H       6.54       8.16      27.88
H       7.46       7.98      29.36
H       1.25       4.59      18.50
H       2.27       4.22      19.90
H       0.98       5.44      20.05
H       3.19       6.58      19.83
H       2.19       6.95      18.46
C       5.36       7.53      22.55
C       5.23       7.65      23.94
C       5.29       6.51      24.74
C       5.46       5.23      24.16
C       5.71       4.10      24.97
C       5.71       2.83      24.39
C       5.42       2.67      22.98
C       5.06       6.62      26.19
C       6.00       4.32      26.41
C       4.33       4.64      28.94
C       4.66       5.52      32.60
C       4.16       4.68      30.32
C       4.80       5.63      31.10
C       5.62       6.63      30.53
C       5.93       6.53      29.15
C       5.25       5.56      28.39
C       3.79       5.59      18.01
C       3.68       5.71      16.61
C       4.66       5.12      15.79
C       5.69       4.35      16.34
C       5.82       4.24      17.72
C       4.90       4.88      18.53
C       4.69       5.31      14.30
C       5.06       3.70      20.69
C       5.46       6.17      20.49
C       5.40       6.27      21.96
C       5.38       5.09      22.74
C       5.30       3.80      22.15
C       2.58       6.55      15.98
C       3.01       8.00      15.76
C       7.16       1.07      25.07
C       7.22      -0.04      26.09
C       8.57      -0.76      26.03
C       4.08       0.82      22.21
C       3.29       0.42      23.45
C       1.98      -0.28      23.06
C       3.50       3.70      28.11
C       2.34       4.40      27.39
C       5.98       7.83      31.37
C       4.83       8.85      31.33
C       7.00       7.41      28.55
C       8.12       6.66      27.80
C       2.74       6.13      18.94
C       1.75       5.04      19.38
N       5.13       4.91      19.96
N       5.44       5.50      26.96
O       5.74       7.12      19.77
O       4.56       7.62      26.70
O       6.66       3.56      27.11
O       5.72       5.18      33.21
O       3.51       5.71      33.11
O       5.76       5.79      13.81
O       3.66       4.96      13.64
O       4.81       2.65      20.10
O       5.86       1.72      25.15
O       5.37       1.39      22.55
