20

C       8.20       8.90      18.67
C       9.42       8.89      20.82
C       7.02       8.90      19.46
C       9.38       8.90      19.42
C       7.05       8.89      20.86
C      10.93       8.88      20.88
C      10.89       8.89      19.30
H       6.11       8.88      21.41
H      11.38       9.77      21.34
H      11.37       7.99      21.34
H      11.31       8.00      18.81
H      11.32       9.78      18.82
C       8.27       8.90      17.17
C       8.25       8.88      23.07
Cl       5.42       8.89      18.77
O       7.18       8.90      16.52
O       9.44       8.91      16.66
O       7.12       8.89      23.66
O       9.39       8.88      23.64
C       8.25       8.89      21.58
