70

H      10.43      14.83       8.49
H      10.82      10.93      10.28
H      19.84      13.00      12.23
H      19.50      12.95       7.69
H       8.47      14.03       7.19
H      16.13      15.04       9.64
H      23.85      13.10      10.09
H      21.76      13.66      11.30
H      21.62      12.47       6.48
H      15.18      12.33      10.86
H      17.27      16.46      13.06
H      15.79      19.48      16.07
H      13.23      16.01      11.97
H      17.71      13.56      13.36
H      14.39      16.05      18.28
H       8.83      10.16       9.01
H      13.49      15.65      16.17
H      13.12      11.59       9.71
H      17.10      17.76      15.14
H      14.06      17.46      20.27
H      18.27      14.53       8.52
H      11.18      15.28      10.79
H      13.65      14.36      14.08
H      15.46      20.90      18.09
N      15.53      14.61      12.19
O      14.65      21.39      20.42
O       6.98      10.34       7.44
O      24.05      12.38       6.17
O      14.35      19.58      21.66
O      25.25      12.46       8.06
O       6.89      12.32       6.33
C      10.78      12.93       9.46
C       8.53      12.04       8.01
C      20.47      13.36       9.58
C      10.08      13.81       8.61
C      12.00      13.38      10.17
C      14.58      20.12      20.52
C      10.32      11.61       9.59
C      24.14      12.52       7.45
C      15.11      17.66      17.02
C      19.22      13.71      10.28
C      14.35      14.22      11.51
C      19.04      13.47      11.66
C      20.46      13.02       8.22
C       8.98      13.36       7.89
C       7.38      11.53       7.21
C      16.95      14.59      10.20
C      15.27      16.82      15.81
C      15.46      15.32      13.41
C      22.89      13.08       9.57
C      21.71      13.38      10.25
C      21.63      12.74       7.54
C      14.30      12.98      10.85
C      16.44      16.28      13.74
C      15.43      19.03      17.00
C      14.74      19.28      19.31
C      13.21      15.04      11.47
C      16.77      14.33      11.57
C      17.84      13.78      12.30
C      14.61      17.11      18.22
C      22.87      12.77       8.20
C       9.20      11.18       8.89
C      14.33      15.83      15.49
C      13.14      12.56      10.21
C      16.34      17.01      14.91
C      14.43      17.91      19.35
C      18.14      14.28       9.57
C      12.06      14.63      10.81
C      14.41      15.10      14.32
C      15.23      19.83      18.12
