34

H       6.59       4.99       5.58
H       6.60      -4.28      10.51
H       7.53      -4.24       5.51
H       7.53       4.96      10.57
H       6.42       1.30       6.00
H       6.43      -0.59      10.09
H       7.84      -0.58       6.00
H       7.84       1.30      10.09
C       7.10       5.43       8.07
C       7.10      -4.71       8.02
C       6.74       1.81       6.91
C       6.75      -1.10       9.18
C       7.52      -1.10       6.90
C       7.14       1.10       8.05
C       7.52       1.81       9.19
C       6.72       3.21       6.90
C       6.73      -2.50       9.18
C       7.51      -2.50       6.88
C       7.50       3.21       9.21
C       7.11       3.92       8.06
C       7.11      -3.21       8.03
C       6.33       3.91       5.65
C       6.33      -3.20      10.44
C       7.86      -3.18       5.61
C       7.14      -0.38       8.04
C       7.86       3.90      10.48
O       8.20       6.00       8.35
O       5.77      -2.63      11.37
O       8.46      -2.63       4.69
O       8.46       3.36      11.39
O       5.99      -5.28       8.28
O       8.20      -5.29       7.74
O       6.00       6.00       7.80
O       5.77       3.34       4.72
