26

C       3.26      10.56       2.80
C       2.93      11.78       0.70
C       4.06      12.84       2.58
H       3.16       9.63       3.35
C       2.70      10.62       1.50
C       4.62      11.49       4.68
O       1.94       9.63       1.06
C       3.58      12.88       1.27
H       3.74      13.78       0.67
H       4.57      13.69       3.02
O       5.07      10.37       4.97
O       4.63      12.59       5.36
O       0.33      10.37      -4.97
O       3.47       9.63      -1.07
O       0.77      12.59      -5.36
C       0.78      11.48      -4.68
C       1.46      11.65      -3.33
C       2.14      10.56      -2.80
C       2.48      11.78      -0.70
C       1.34      12.84      -2.58
C       2.70      10.62      -1.51
C       1.83      12.88      -1.28
H       1.67      13.78      -0.67
H       2.25       9.63      -3.35
H       0.83      13.69      -3.02
C       3.94      11.66       3.33
