28

C      29.26      17.70      18.08
C      26.37      22.53      18.14
C      29.96      16.50      18.08
C      32.70      11.58      18.14
H      27.85      14.65      20.03
H      30.26      10.45      20.03
H      26.61      16.80      20.03
H      24.18      20.98      20.03
N      32.07       9.74      19.17
N      24.48      22.90      19.17
H      29.66      18.56      17.54
H      27.24      22.75      17.53
N      25.43      23.46      18.39
N      33.03      10.30      18.39
H      33.32      12.22      17.53
H      30.90      16.41      17.54
C      29.46      15.37      18.78
C      30.17      14.15      18.78
C      30.78      13.09      18.78
C      31.48      11.88      18.78
C      28.04      17.83      18.78
C      27.34      19.05      18.78
C      26.73      20.11      18.78
C      26.02      21.33      18.78
C      28.24      15.50      19.48
C      31.13      10.67      19.42
C      27.55      16.71      19.48
C      24.80      21.63      19.42
