20

H       2.21      13.73      13.57
H      -2.21      15.16      11.74
O       1.19      10.91      17.57
O      -1.19      17.99       7.75
O      -1.10      10.96      17.60
O       1.10      17.93       7.72
F       2.31      15.23      11.44
F      -2.31      13.66      13.88
C       0.05      11.26      17.13
C      -0.05      17.64       8.19
C       1.24      14.04      13.18
C      -1.24      14.85      12.14
C       0.06      13.63      13.82
C      -0.06      15.26      11.50
C      -1.16      14.06      13.26
C       1.16      14.83      12.05
C       0.08      12.81      14.97
C      -0.07      16.08      10.35
C      -0.06      16.79       9.36
C       0.06      12.10      15.96
