30

H      13.54      12.58       6.06
H      15.25      15.31       9.20
N      17.78      15.85       9.19
N      11.00      12.53       5.60
H      10.94      14.42       9.87
H      13.41      14.29      10.02
H      17.88      11.87       6.76
H      15.41      11.66       6.89
O       8.77      13.06       6.89
O      20.03      14.44       8.74
O      20.01      13.11       6.90
O       8.79      14.38       8.74
C       9.35      13.68       7.85
C      19.45      13.75       7.84
O      10.75      13.38       4.73
O      10.87      11.31       5.48
O      18.24      16.68       8.41
O      17.69      15.97      10.42
C      10.84      13.56       7.91
C      17.96      13.69       7.90
C      11.60      13.02       6.86
C      12.99      12.96       6.92
C      17.19      14.63       8.60
C      15.81      14.53       8.69
C      17.29      12.62       7.29
C      15.90      12.51       7.36
C      11.52      14.01       9.05
C      12.91      13.95       9.12
C      13.67      13.44       8.05
C      15.14      13.47       8.05
