30

H       2.87       3.03      12.55
H      -0.96       1.87      10.97
H      -2.05      -0.23      11.74
H      -2.10      -2.18      13.26
H      -1.08      -3.46      15.16
H       2.73      -2.30      16.75
H       3.84      -0.20      15.97
H       3.89       1.74      14.44
C       0.97       3.72      10.75
C       2.03       2.34      12.56
C       0.96       2.55      11.68
C      -0.13       1.68      11.66
C      -0.17       0.55      12.49
C       0.91       0.34      13.42
C       2.00       1.26      13.46
C      -1.24      -0.40      12.45
C      -1.26      -1.48      13.29
C      -0.22      -1.69      14.25
C       0.88      -0.77      14.29
C       1.95      -0.98      15.22
C       3.02      -0.03      15.26
C       3.05       1.04      14.42
C      -0.24      -2.77      15.15
C       0.82      -2.98      16.04
C       1.91      -2.10      16.06
C       0.80      -4.14      16.98
O       2.11       4.17      10.40
O      -0.16       4.15      10.35
O       1.93      -4.57      17.39
O      -0.34      -4.60      17.31
