14

C       5.36      10.53       3.65
C       4.26      10.92       2.97
C       5.36       9.69       4.84
C       4.27       9.28       5.52
H       6.33      10.86       3.27
H       3.26      10.62       3.27
H       6.34       9.37       5.22
C       4.32      11.78       1.77
H       3.26       9.56       5.22
O       5.49       8.07       7.16
O       3.22       8.10       7.23
C       4.34       8.42       6.72
O       5.47      12.16       1.36
O       3.20      12.07       1.24
