15

N       5.03       5.90      14.89
N       4.98       4.69      15.46
N       4.16       3.91      14.78
N       4.25       5.95      13.83
N       0.86       3.58      10.84
H       2.60       2.24      13.40
H       0.89       5.55      10.19
H       0.94       1.65      11.60
H       2.61       6.27      11.86
C       2.75       4.31      12.76
C       2.26       2.99      12.69
C       1.31       4.84      10.91
C       3.71       4.71      13.77
C       1.33       2.67      11.71
C       2.26       5.24      11.84
