24

C       6.92       7.97       7.75
C       8.22       8.54       7.70
C       5.92       8.51       8.57
C       7.54      10.21       9.25
C       8.54       9.68       8.46
C       6.23       9.63       9.33
H       4.50       8.29      10.95
H       5.70      12.26       9.69
H       3.96      13.32      11.13
N       2.51       9.45      12.66
N       1.81      10.46      13.18
N       2.25      11.63      12.73
N       8.95       7.77       6.84
N       8.15       6.79       6.39
N       6.93       6.90       6.91
H       4.93       8.04       8.62
H       7.76      11.07       9.88
H       9.55      10.09       8.44
C       3.45       9.98      11.82
C       3.29      11.39      11.87
C       4.41       9.38      11.00
C       5.07      11.63      10.32
C       4.11      12.24      11.12
C       5.22      10.21      10.24
