20

C      22.15      17.94      27.01
C      24.32      16.64      28.06
C      23.13      17.41      26.17
C      23.32      17.17      28.90
C      21.32      18.47      25.85
C      22.44      17.88      24.91
H      20.33      18.02      25.74
H      21.22      19.56      25.83
H      23.00      18.62      24.32
H      22.11      17.07      24.23
C      25.31      16.20      25.74
O      26.29      15.59      26.26
O      25.11      16.40      24.49
C      21.12      18.41      29.27
O      21.23      18.25      30.52
O      20.18      19.03      28.66
F      25.35      16.02      28.68
F      23.52      16.99      30.22
C      22.19      17.84      28.40
C      24.26      16.74      26.65
