42

C       7.82       2.75       3.96
C       7.18       3.03       2.81
C       8.46      -2.36       2.72
C       7.86      -2.11       3.89
C       7.77       0.29       9.20
C       7.79       0.28       7.99
C       5.23       0.29      13.21
C       4.99      -0.27      14.41
C      10.08       0.50      13.34
C      10.28       1.07      14.54
N       6.52       0.35      11.21
N       8.91       0.34      11.28
N       7.66       0.41      13.32
N       7.84       0.32       3.88
N       7.89       1.49       5.96
N       7.75      -0.90       5.93
O      12.36       0.03      14.82
O      11.99       1.98      15.92
H       8.30       3.56       4.51
H       6.61       2.27       2.26
H       9.01      -1.59       2.16
H       7.40      -2.94       4.44
O       2.86       0.71      14.57
O       3.28      -1.15      15.81
H       4.41       0.69      12.63
H       5.76      -0.77      14.99
H      10.93       0.09      12.79
H       9.48       1.57      15.09
C      11.65       1.04      15.15
C       3.60      -0.25      14.97
C       6.54       0.35      12.56
C       7.73       0.33      10.63
O       9.38      -4.08       1.36
C       8.81       0.42      12.62
O       7.49      -4.49       2.55
C       7.82      -0.82       4.58
C       7.85       1.45       4.62
C       7.81       0.28       6.56
C       8.45      -3.74       2.16
O       8.14       5.17       2.63
O       6.30       4.71       1.39
C       7.20       4.41       2.25
