26

C       6.52       4.39       6.77
C       6.83      -0.59      13.15
C       6.77       0.48      12.08
C       6.58       3.33       7.84
C       6.88       0.95       8.34
C       6.48       2.86      11.58
C       6.72       1.99       7.41
C       6.63       1.81      12.51
C       6.62       3.63       9.19
C       6.73       0.17      10.73
C       6.61       2.59      10.18
C       6.74       1.21       9.74
C       6.56       2.08      13.91
C       6.79       1.72       6.01
C       7.29      -0.29       7.77
C       6.06       4.10      12.15
I       6.47      -1.88      10.28
I       6.88       5.68       9.64
N       6.53       2.25      15.07
N       6.83       1.55       4.85
N       7.72      -1.18       7.13
N       5.63       4.98      12.79
O       5.37       4.73       6.39
O       7.98      -0.93      13.53
O       7.65       4.79       6.37
O       5.70      -0.99      13.56
