36

O       1.15      14.08       6.08
O      -0.09      14.62       7.81
O       6.00      15.99       4.07
O       7.89      15.09       3.38
O       4.85      10.37       7.75
O       5.39       9.13       6.02
O       6.76      15.24       9.76
O       5.86      17.13      10.44
C       6.76      15.99       6.91
C       2.63      11.86       6.91
C       2.22      14.65       8.05
C       6.50      13.84       4.75
F       6.87      10.30       4.24
F       3.29      16.65      10.84
C       5.42      11.45       5.78
C       4.61      15.73       9.08
F       1.07      16.09       9.58
F       7.42      12.53       2.99
C       2.19      15.55       9.09
C       6.75      12.64       4.14
C       6.32      11.42       4.74
C       3.41      15.98       9.69
C       4.65      14.95       7.86
C       4.92      12.72       6.25
C       5.72      13.88       5.96
C       3.49      14.15       7.58
C       5.70      14.93       6.91
C       3.70      12.93       6.91
N       1.00      14.41       7.26
N       6.84      15.07       4.02
N       5.18      10.22       6.56
N       5.84      16.07       9.81
O       6.49      17.08       7.52
O       2.68      11.01       5.97
O       7.85      15.72       6.30
O       1.78      11.90       7.85
