30

H       5.43       5.27      22.42
H       6.85       9.31      19.93
C       5.16       7.66      26.49
C       6.79       9.78      22.57
C       6.17      10.22      23.75
C       6.60      11.38      24.40
C       7.61      12.16      23.84
C       8.19      11.77      22.62
C       7.80      10.58      22.01
H       5.71       5.17      19.94
H       5.34       9.67      24.18
H       6.14      11.66      25.35
H       7.95      13.07      24.34
H       8.97      12.37      22.16
H       8.32      10.26      21.11
O       5.55       8.77      26.96
O       4.30       6.86      27.03
O       7.19       5.52      15.53
O       8.06       7.62      15.31
C       7.39       6.70      15.93
C       6.86       7.03      17.23
C       5.89       6.09      20.49
C       5.74       6.15      21.86
C       6.43       8.51      21.89
C       6.55       8.43      20.50
C       6.31       7.24      19.79
C       6.01       7.34      22.58
C       5.85       7.31      23.98
C       6.57       7.17      18.40
C       5.65       7.29      25.19
