19

O       6.65       8.64      18.88
O       8.81       6.88      19.31
O       7.19       1.27      18.63
O       9.66       4.75      19.46
H      10.84       6.48      19.50
O       9.26       1.97      19.24
O       4.69       7.75      18.39
C       5.91       7.59      18.59
C       8.06       2.16      18.87
C       8.36       4.69      19.04
C       7.59       3.57      18.71
C       7.84       5.98      18.95
C       6.28       3.83      18.24
H       5.65       2.98      18.01
C       5.77       5.12      18.16
C       6.54       6.25      18.54
H       4.75       5.29      17.83
H       9.83       6.17      20.98
C       9.88       6.11      19.88
