35

F       3.67      14.59       4.29
C      -0.96      16.42       5.03
C       3.95      11.82      10.09
F       1.28      11.20       4.63
C      -0.39      15.17       4.81
H       1.62      17.92       6.68
F       3.19      12.65       3.40
H      -1.97      16.64       4.67
C       0.90      14.90       5.27
C       1.61      15.90       5.96
H      -0.96      14.43       4.26
C       2.64      13.79       3.88
C       0.65      12.41       4.61
C       2.28      13.10       6.35
H       4.15      12.40       5.51
C       3.56      12.53       6.41
H       5.09      11.69       7.68
C       1.62      13.56       5.04
H       1.46      12.90       9.66
C       4.09      12.13       7.63
O      -2.07      18.94       5.49
H       0.53      13.66       7.51
C       3.35      12.27       8.81
C       2.06      12.81       8.75
O       3.27      11.90      11.19
C       1.53      13.22       7.54
O       5.13      11.35      10.08
O      -0.22      19.70       6.48
H       2.62      15.70       6.33
F      -0.41      12.31       5.48
C      -0.88      18.75       5.90
F       0.13      12.57       3.37
C      -0.25      17.42       5.71
F       2.04      14.42       2.83
C       1.05      17.15       6.17
