20

H      14.60      -4.67      13.01
C      13.57      -7.40      13.31
C      12.52     -10.03      18.98
C      13.20      -7.92      14.36
C      12.51      -9.51      17.86
C      12.87      -8.47      15.54
C      12.63      -8.95      16.65
N      14.89      -5.02      10.95
N      13.65     -12.40      21.43
H      13.47     -12.73      19.34
H      13.93      -8.06      10.40
H      12.55      -9.40      21.94
C      14.52      -5.37      12.18
C      13.31     -12.07      20.18
N      14.67      -6.09      10.12
N      13.37     -11.34      22.25
C      14.17      -7.10      10.85
C      12.84     -10.35      21.50
C      14.05      -6.70      12.19
C      12.80     -10.75      20.15
