20

C      24.16      15.51       3.05
C      22.05      14.50       4.76
C      24.19      14.22       3.57
C      22.02      15.82       4.22
C      23.17      13.75       4.40
C      23.05      16.30       3.40
C      24.97      12.93       3.63
C      23.82      12.39       4.57
H      22.99      17.32       3.02
H      25.08      12.40       2.67
H      25.97      13.00       4.10
H      24.12      12.15       5.60
Br      20.62      17.07       4.54
H      23.24      11.54       4.17
C      21.01      13.89       5.65
C      25.22      16.06       2.17
O      21.23      12.68       6.01
O      20.01      14.60       5.99
O      25.09      17.27       1.79
O      26.18      15.27       1.87
