13

O       7.55       0.91       8.74
C       5.23       1.34       9.26
H       4.84       2.36       9.11
O       6.02       2.21       6.34
C       4.75       2.12       6.23
O       7.10       2.15      10.53
H       3.17       1.58       7.59
H       3.67       0.31       6.44
C       6.72       1.47       9.53
O       4.08       2.83       5.43
H       4.74       0.97      10.17
C       4.04       1.09       7.11
N       4.94       0.48       8.10
