20

H       6.75      17.90       5.88
H       7.66      16.38       5.84
H       3.49      16.33       6.09
H       4.37      17.87       6.06
H       6.47      14.27       5.90
H       4.70      14.26       6.03
C       6.75      16.87       5.47
C       4.34      16.86       5.63
C       5.55      14.77       5.55
N       5.58      16.16       6.06
N       5.41      16.16       3.50
H       4.25      17.90       3.69
H       3.33      16.38       3.73
H       7.50      16.33       3.47
H       6.63      17.87       3.51
H       4.53      14.27       3.67
H       6.29      14.26       3.54
C       4.24      16.87       4.09
C       6.66      16.86       3.93
C       5.44      14.77       4.01
