14

O      10.31       9.48       3.60
O      10.31       8.98      -3.60
O       8.04       9.18       3.56
O       8.04       9.28      -3.56
F      10.38       8.50      -1.05
F      10.38       9.96       1.05
H       7.23       9.48      -1.24
H       7.23       8.98       1.24
C       9.18       9.38       3.02
C       9.18       9.08      -3.02
C       8.17       9.24      -0.72
C       8.17       9.22       0.72
C       9.20       8.95      -1.54
C       9.20       9.51       1.54
