44

H       5.03      13.62       4.85
H       4.42      12.85       7.12
H       3.00      17.33       5.52
H       2.44      16.60       7.86
H       4.14      12.44       9.03
H       4.54      10.64       9.81
H       5.44       8.67      11.02
H       4.03      10.04      14.65
H       3.14      12.12      13.64
H       2.27      13.59      12.73
H       0.95      14.76      13.59
H      -0.34      16.50      14.77
H       0.04      19.11      11.39
H       1.33      17.34      10.17
C       4.42      15.96       3.66
C       4.07      15.53       5.05
C       4.45      14.26       5.51
C       4.10      13.84       6.79
C       3.38      14.69       7.66
C       3.33      16.36       5.90
C       3.00      15.96       7.19
C       3.05      14.30       9.06
C       3.52      13.11       9.62
C       3.26      12.82      10.97
C       3.76      11.59      11.62
C       4.40      10.57      10.89
C       4.91       9.46      11.55
C       4.14      10.24      13.59
C       3.64      11.39      13.00
C       2.51      13.76      11.68
C       2.05      14.93      11.06
C       1.25      15.94      11.79
C       0.78      15.71      13.10
C       0.05      16.69      13.77
C      -0.20      17.92      13.17
C       0.26      18.15      11.86
C       0.97      17.17      11.18
C      -1.03      18.96      13.85
N       2.32      15.18       9.77
N       4.78       9.29      12.88
O       5.47      15.44       3.15
O       3.68      16.81       3.07
O      -0.96      20.17      13.40
O       6.01      18.64      14.79
