13

C      13.33      13.24      21.08
C      12.77      17.13      21.15
S      14.04      15.96      21.10
H      10.75      14.45      21.18
O      14.56      12.97      20.87
C      12.91      14.66      21.11
O      12.39      12.40      21.27
C      13.08      18.57      21.19
H      10.60      17.11      21.21
C      11.60      15.12      21.16
O      12.11      19.38      21.06
O      14.31      18.89      21.34
C      11.52      16.53      21.17
