32

H       2.21      12.57      13.16
H       2.30      12.46      10.67
H       1.91      16.77      10.49
H       1.91      12.25       6.26
H       2.22      16.44       3.59
H       2.30      16.55       6.08
C       1.99      14.31       2.03
C       1.99      14.70      14.72
C       2.03      14.71      13.22
C       2.15      13.48      12.56
C       2.20      13.42      11.18
C       2.11      14.60      10.40
C       2.00      15.84      11.05
C       1.96      15.87      12.44
C       2.11      14.53       8.98
C       2.11      14.48       7.77
C       2.11      14.42       6.35
C       2.00      13.18       5.70
C       1.96      13.14       4.31
C       2.03      14.30       3.53
C       2.15      15.53       4.19
C       2.20      15.59       5.58
N       1.78      17.19      13.08
N       1.78      11.82       3.67
O       2.94      13.75       1.40
O       1.04      14.98       1.52
O       2.94      15.26      15.35
O       1.04      14.03      15.23
O       1.22      17.21      14.19
O       2.18      18.19      12.46
O       1.22      11.80       2.56
O       2.18      10.82       4.29
