16

C       4.50      11.49      15.52
H       3.37       9.21      12.22
Br       7.19       8.98      11.66
O       3.06       7.80      10.14
H       7.40      10.31      13.30
H       2.61      10.77      14.66
O       5.31       7.54      10.13
C       4.24       8.03      10.61
C       5.53      10.27      13.55
O       3.33      11.78      16.00
C       4.43      10.67      14.29
C       5.45       9.40      12.37
C       4.32       8.91      11.78
O       5.61      11.82      16.03
O       6.75      10.70      13.95
O       3.15      10.33      13.95
