23

C      11.95       1.26       3.73
H      11.84      -0.34       7.46
C      10.81      -0.07       5.56
H       8.45      -2.86       6.93
C       8.90      -1.53       5.27
C      11.74       0.98       5.10
C      10.40      -2.13       8.72
C      12.49       1.73       6.02
H       9.52      -0.05       3.82
C      10.16      -1.62       7.33
H      13.09       2.43       2.32
C      12.92       2.18       3.37
C      11.01      -0.64       6.83
H      14.06       3.19       6.27
H      11.36       0.77       2.96
C       9.11      -2.09       6.53
H       8.05      -1.87       4.67
N      13.69       2.84       4.26
C       9.73      -0.52       4.78
O      11.36      -1.69       9.40
H      12.33       1.62       7.09
O       9.59      -3.04       9.16
C      13.45       2.62       5.57
