30

C       1.60      38.76      20.62
C       1.56      39.92      19.86
C       2.02      36.34      20.85
C       2.02      35.08      20.38
C       1.60      32.66      20.61
C       2.03      33.87      21.19
C       2.46      33.85      22.53
C       2.46      32.67      23.25
C       1.99      31.46      22.70
C       1.56      31.50      21.37
O       1.03      29.40      23.36
O       2.89      30.13      24.41
O       1.03      42.02      17.87
H       2.83      38.77      16.95
O       2.89      41.29      16.82
H       1.28      38.80      21.67
H       1.28      32.62      19.57
H       2.84      34.76      22.99
H       2.83      32.64      24.28
H       1.96      36.50      21.94
H       1.96      34.92      19.30
F       1.13      41.06      20.48
F       1.13      30.36      20.76
C       1.97      30.24      23.54
C       1.97      41.18      17.69
H       2.84      36.66      18.24
C       1.99      39.95      18.53
C       2.46      38.75      17.98
C       2.46      37.57      18.70
C       2.03      37.55      20.04
