51

C       2.05       2.81       6.21
C       1.60       1.80       5.22
O      -6.60       2.42       7.40
H       3.48       1.76       4.17
C       2.45       1.39       4.19
O      -5.14       3.80       6.45
C       1.99       0.54       3.19
H       2.65       0.23       2.38
O       3.26       3.21       6.16
C       0.66       0.08       3.21
H      -1.22       0.11       4.29
H      -0.39       1.64       6.04
C      -0.19       0.46       4.26
C       0.28       1.32       5.24
H       0.48      -2.84      -0.81
H       1.98      -3.43      -2.70
C      -0.94      -1.31       1.83
O       2.60      -4.48      -4.84
C      -3.13      -1.71       2.17
H      -1.27      -5.49      -4.62
C      -2.06      -2.69       0.44
H      -2.76      -4.93      -2.76
C      -1.24      -3.84      -1.64
H      -3.84       2.75       4.55
C       0.11      -3.44      -1.63
H      -3.22       0.97       2.96
C       0.94      -3.77      -2.69
H      -5.99      -1.72       4.88
C       0.46      -4.51      -3.79
H      -6.63       0.09       6.48
C      -0.87      -4.94      -3.78
C      -1.71      -4.61      -2.72
N       0.26      -0.75       2.15
C       1.36      -4.74      -4.93
N      -2.02      -1.06       2.57
C      -5.68       2.61       6.55
N      -3.22      -2.56       1.13
C      -5.28       1.54       5.62
N      -0.90      -2.10       0.73
C      -4.32       1.77       4.63
N      -2.16      -3.52      -0.65
C      -3.96       0.77       3.73
N      -4.28      -1.51       2.89
C      -4.57      -0.50       3.81
C      -5.53      -0.74       4.81
C      -5.88       0.27       5.70
H       0.99      -0.99       1.48
H      -3.10      -3.88      -0.78
O       1.20       3.25       7.06
H      -5.03      -2.16       2.65
O       0.90      -5.19      -6.07
