60

H       4.76      13.28       5.92
H       3.00       5.74      -6.32
H       7.41      12.83      -6.04
H       6.74       5.09       6.13
H       5.50      12.65       1.43
H       3.87       5.67      -1.77
H       7.10      12.30      -1.58
H       6.04       5.34       1.78
H       3.50       9.37       1.28
H       7.65       8.57      -1.35
H       3.41       9.34      -1.20
H       7.75       8.61       1.13
C       5.33       9.22      -7.23
C       5.34       9.12       7.16
C       4.41       9.19       0.70
C       5.11      10.25       4.91
C       4.55       8.26      -5.05
C       6.20      10.04      -5.01
C       6.07       8.03       5.02
C       5.24      10.23       3.51
C       6.74       8.75      -0.77
C       4.63       8.15      -3.65
C       6.23       9.98      -3.61
C       6.09       7.97       3.61
C       5.66       9.07       2.85
C       5.47       9.02      -2.92
C       5.52       9.14       5.67
C       5.36       9.18      -5.72
C       4.47      11.45       5.57
C       3.55       7.48      -5.85
C       7.10      10.99      -5.77
C       4.36       9.17      -0.69
C       6.74       6.95       5.82
C       4.86      11.46       2.74
C       3.78       7.12      -2.96
C       7.11      10.95      -2.88
C       6.59       6.72       2.94
C       6.79       8.76       0.62
C       5.52       8.96      -1.44
C       5.63       9.00       1.37
O       5.44       8.09      -7.80
O       5.29      12.53       5.56
O       2.66       8.02      -6.49
O       3.73       6.13      -5.79
O       8.00      10.63      -6.50
O       6.78      12.29      -5.52
O       7.76       7.12       6.46
O       6.15       5.73       5.67
O       3.79      12.05       2.84
O       5.85      11.87       1.91
O       2.58       7.03      -3.09
O       5.36      10.24       7.75
O       4.52       6.27      -2.18
O       8.31      11.06      -3.07
O       6.43      11.73      -2.00
O       7.72       6.27       3.06
O       5.62       6.12       2.20
O       5.16       7.98       7.69
O       5.22      10.36      -7.76
O       3.33      11.46       5.98
