22

H       1.78       7.02       9.31
H       1.69       7.02      11.79
H       5.95       7.02       9.32
H       1.74       7.02      18.76
H       5.91       7.02      18.77
H       6.00       7.02      16.29
C       2.70       7.02       9.89
C       2.65       7.02      11.28
C       3.85       7.02      12.02
C       5.03       7.02      11.27
C       5.02       7.02       9.89
C       3.85       7.02      13.43
C       3.84       7.02      14.65
C       3.85       7.02      16.06
C       2.66       7.02      16.81
C       2.67       7.02      18.20
C       5.00       7.02      18.19
C       5.04       7.02      16.80
N       3.86       7.02       9.21
N       3.83       7.02      18.88
F       6.23       7.02      11.92
F       1.47       7.02      16.16
