24

N       2.43       1.40       2.80
N       7.46       4.31      11.02
H       5.38       3.11       5.06
H       4.23       2.45       3.16
H       6.60       3.81       7.05
H       7.76       4.48       8.93
N       1.47       0.85       3.57
N       6.51       3.76      11.80
H       2.33       1.35       7.54
H       1.17       0.68       5.66
H       3.55       2.05       9.54
H       4.70       2.71      11.43
C       3.75       2.17       6.13
C       3.02       1.75       4.94
C       5.18       2.99       8.46
C       5.91       3.41       9.66
C       4.97       2.87       6.04
C       3.37       1.95       3.59
C       5.66       3.27       7.17
C       7.13       4.12       9.73
C       3.27       1.89       7.42
C       1.81       1.04       4.86
C       3.97       2.29       8.56
C       5.57       3.21      11.01
