30

C      10.28      17.47      11.05
C      10.75      18.82       8.65
C      10.37      18.86      11.04
H      12.24      21.11       8.29
C      10.61      19.55       9.84
C      10.66      17.43       8.66
C      10.42      16.73       9.86
H      10.90      19.34       7.71
H      10.30      19.40      11.98
H      10.74      16.88       7.72
H      10.14      16.94      11.99
H      12.40      23.61       8.36
H       8.61      12.70      11.36
N      10.03      12.48       9.88
N      10.98      23.81       9.85
H      11.48      12.40       8.41
H       9.53      23.86      11.32
H      11.79      14.89       8.33
H       9.22      21.37      11.37
H       8.77      15.20      11.41
C      10.90      13.07       9.05
C      10.11      23.20      10.68
C      11.06      14.45       9.01
C       9.95      21.82      10.70
C      10.30      15.26       9.87
C      10.72      21.02       9.84
C       9.41      14.62      10.74
C      11.61      21.68       8.97
C       9.30      13.24      10.71
C      11.71      23.06       9.00
