30

H       3.28       9.96       3.40
H       3.09       8.17       5.13
H       7.44       9.01       2.83
H       2.90       3.07       9.71
H       7.06       2.12       9.15
H       7.25       3.91       7.42
H       7.25       6.41       5.26
H       3.09       5.66       7.28
C       4.92       1.51      10.64
C       5.42      10.57       1.90
C       5.36       9.58       3.01
C       4.14       9.36       3.67
C       4.05       8.37       4.64
C       5.17       7.58       4.96
C       6.41       7.84       4.31
C       6.50       8.83       3.34
C       5.12       6.52       5.89
C       5.22       5.56       6.65
C       5.17       4.50       7.58
C       3.93       4.24       8.23
C       3.84       3.25       9.20
C       4.98       2.50       9.53
C       6.20       2.72       8.87
C       6.30       3.71       7.90
O       3.80       1.34      11.23
O       6.01       0.94      10.96
O       4.33      11.14       1.59
O       6.54      10.74       1.31
O       7.52       7.10       4.61
O       2.83       4.98       7.93
