14

C       8.58       4.22       7.56
C       7.75       3.30       7.02
C       8.58       5.69       7.44
C       7.97      -0.53       6.68
H       8.57       1.63       8.11
Br       6.23       3.75       5.97
H       9.43       3.83       8.13
H       7.08       1.08       5.47
O       9.65       6.26       7.87
O       7.56       6.28       6.95
O       8.50      -1.18       5.71
O       7.73      -0.96       7.85
C       7.61       0.88       6.40
C       7.98       1.88       7.23
