14

C       1.47       6.83       8.01
O      -3.50       5.69       7.25
H       1.26       8.86       7.55
O       3.52       5.69       8.01
O       3.56       7.96       7.99
O      -3.54       7.96       7.27
C      -1.45       6.83       7.26
H      -1.24       8.86       7.71
H       1.01       5.86       8.21
H      -0.99       5.86       7.05
C      -2.93       6.84       7.25
C       2.95       6.84       8.01
C       0.73       7.91       7.70
C      -0.71       7.91       7.57
