20

H       3.89       9.47      12.93
H       4.03       8.28      15.14
H       9.22       7.62      14.46
H       9.23       9.19      15.33
H       9.08       8.86      12.25
H       9.08      10.41      13.12
C       5.95      10.33      11.37
C       7.20       9.30      13.28
C       6.00       9.63      12.67
C       4.85       9.23      13.38
C       4.92       8.57      14.60
C       6.15       8.25      15.21
C       7.27       8.63      14.50
C       8.77       8.62      14.50
C       8.68       9.39      13.12
C       6.18       7.56      16.53
O       7.08      10.67      10.89
O       4.80      10.53      10.84
O       7.34       7.25      16.98
O       5.06       7.36      17.10
