39

N      18.69      11.27      16.67
N      17.73      12.45      18.51
N      16.48      10.73      17.43
H      17.77       6.59      14.40
H      14.49       8.80      12.64
N      15.48       6.99      12.16
N      16.53       6.29      12.72
H      13.88      11.13      21.93
H      14.16      15.40      21.25
H      21.81      15.10      20.94
H      21.61      15.49      16.62
N      12.95      12.83      22.79
N      13.04      14.19      22.57
N      22.77      16.41      18.14
N      22.83      16.28      19.51
H      18.43       9.20      15.18
H      15.39       9.62      15.35
H      20.53      13.05      16.78
H      19.57      13.79      19.61
H      14.81      11.04      19.37
H      16.14      13.76      19.93
C      17.55      10.56      16.61
C      18.71      12.23      17.62
C      16.64      11.67      18.38
C      16.96       6.98      13.79
C      16.19       8.14      13.97
C      15.27       8.09      12.91
C      13.77      12.21      21.92
C      14.43      13.17      21.12
C      13.93      14.40      21.59
C      21.93      15.36      19.89
C      21.27      14.84      18.76
C      21.85      15.54      17.68
C      17.47       9.55      15.56
C      16.31       9.14      15.01
C      19.89      13.10      17.66
C      20.20      13.88      18.72
C      15.55      11.84      19.34
C      15.42      12.96      20.10
