24

C       0.87       1.05       9.71
N       3.72       3.21       8.80
H       1.66       2.36      13.22
C       0.34       0.49      10.86
N       4.63       3.53       4.95
H       2.76       3.43      11.26
C       2.52       2.58       8.67
N       2.83       2.65       2.98
H       0.62       0.65       8.73
C       3.20       2.87       6.70
H      -0.34      -0.36      10.80
C       3.44       2.96       5.28
H       1.59       2.10       4.56
C       2.55       2.54       4.28
H       4.26       3.31       1.61
C       4.02       3.21       2.67
H       5.87       4.11       3.40
C       4.91       3.66       3.65
C       1.47       2.00      12.21
N       0.64       0.94      12.10
C       2.07       2.59      11.11
N       2.16       2.34       7.38
C       1.80       2.10       9.83
N       4.14       3.38       7.53
