25

H       4.06       3.17       3.64
H       9.92       3.42       7.06
H      11.14       2.79       4.98
H       9.87       2.21       2.95
H       5.27       2.23       1.67
H       8.10       3.58       8.30
H       7.04       4.79       7.54
H       6.49       3.12       7.74
C       4.92       3.88       5.94
C       7.23       3.15       4.97
C       7.81       1.51       1.52
C       5.81       3.33       4.86
C       5.14       3.02       3.69
C       7.98       3.38       6.18
C       9.36       3.24       6.14
C       5.82       2.50       2.58
C      10.05       2.86       4.97
C       9.34       2.55       3.84
C       7.93       2.64       3.81
C       7.36       3.74       7.50
C       7.18       2.28       2.64
O       4.01       3.11       6.37
O       5.08       5.11       6.29
O       7.39       1.74       0.31
O       8.68       0.64       1.82
