16

C      22.49       3.94      10.55
O      21.58       4.71      10.10
H      22.37       6.39      12.04
C      25.61       4.71      14.77
C      23.08       5.64      12.38
C      25.46       5.91      15.45
C      23.24       4.42      11.73
C      23.95       5.74      13.48
C      24.76       4.59      13.65
S      24.26       6.93      14.70
S      24.44       3.39      12.45
F      26.46       3.73      15.12
O      22.81       2.79      10.10
O      25.79       7.51      17.13
C      26.14       6.36      16.67
O      27.00       5.57      17.18
