27

H       8.31      10.28      23.10
H       8.08       9.43      25.45
H       4.00      10.80      25.53
H       4.23      11.61      23.18
H       5.43      11.71      28.27
H       3.39      12.03      29.68
H       2.04       8.08      28.65
H       4.08       7.76      27.23
C       6.38      11.41      21.57
C       6.27      10.98      22.98
C       7.36      10.38      23.64
C       7.25       9.91      24.94
C       6.03      10.05      25.62
C       4.94      10.68      25.00
C       5.07      11.13      23.69
C       4.83       9.73      27.65
C       4.67      10.94      28.33
C       3.54      11.11      29.13
C       2.58      10.09      29.23
C       2.78       8.88      28.55
C       3.91       8.69      27.76
C       1.36      10.31      30.05
O       5.37      11.88      20.94
O       7.51      11.29      20.96
O       5.98       9.53      26.89
O       0.40       9.46      29.92
O       1.34      11.33      30.82
