20

C      24.22      15.54       3.05
C      22.15      14.44       4.80
C      24.26      14.24       3.57
C      22.09      15.75       4.29
C      23.28      13.72       4.40
C      23.08      16.28       3.45
C      25.09      12.97       3.59
C      23.97      12.38       4.53
H      25.19      12.47       2.61
H      26.09      13.07       4.04
H      24.30      12.12       5.55
H      23.41      11.52       4.12
C      21.10      13.85       5.69
C      25.29      16.08       2.17
O      21.30      12.64       6.04
O      20.12      14.59       6.01
O      25.18      17.28       1.77
O      26.23      15.26       1.88
F      21.07      16.58       4.58
F      22.89      17.55       3.04
