18

C       7.39      -1.35      14.24
C       7.39       0.36      15.95
C       7.38       2.05      12.57
O       7.30      -0.20      18.28
C       7.38      -2.78      13.85
C       7.38       0.74      17.39
O       7.47       1.75      11.34
C       7.40      -0.36      13.25
O       7.47      -3.70      14.71
C       7.40      -0.99      15.59
O       7.47       1.95      17.75
C       7.40       1.35      14.97
H       7.39      -0.64      12.19
O       7.30       3.28      12.94
H       7.39      -1.77      16.36
H       7.39       2.40      15.25
O       7.30      -3.08      12.59
C       7.39       0.99      13.62
