34

C       2.11       8.33       0.55
C       3.93       7.09       0.06
C       1.95       6.08       0.50
C       9.61       5.43      -1.52
C       7.85       6.75      -0.98
C       9.88       7.67      -1.38
C      11.88       2.09      -1.51
C      12.15      11.05      -1.17
C      -0.31       2.71       0.22
C      -0.24      11.64       0.44
C      10.24       4.16      -1.67
C      10.93       3.16      -1.68
C      10.74       8.82      -1.41
C      11.48       9.78      -1.36
C       0.40       3.94       0.49
C       1.13       4.91       0.55
C       0.68      10.55       0.64
C       1.42       9.58       0.66
C       6.47       6.88      -0.62
C       5.31       6.99      -0.30
N       3.41       8.33       0.23
N       3.25       5.93       0.17
N       1.33       7.25       0.73
N       8.30       5.49      -1.20
N       8.59       7.88      -1.04
N      10.44       6.49      -1.65
O      12.13       1.31      -2.48
O      12.40       2.06      -0.34
O      13.29      11.26      -1.69
O      -1.46       2.51       0.71
O      -0.46      12.44       1.40
O      -0.73      11.69      -0.74
O      11.45      11.87      -0.48
O       0.35       1.93      -0.56
