24

H      -7.05       0.47      15.85
H      -9.57       0.47      15.77
H      -9.35      -0.19      11.55
H      -8.00      -0.56       9.90
H      -3.90      -0.43       8.70
H      -3.26      -0.01      11.10
C      -7.58       0.34      14.91
C      -8.97       0.33      14.87
C      -9.62       0.15      13.64
C      -8.84      -0.03      12.50
C      -7.45      -0.01      12.60
C      -6.55      -0.16      11.47
C      -6.95      -0.42      10.17
C      -6.01      -0.52       9.15
C      -4.66      -0.37       9.48
C      -4.30      -0.13      10.81
C     -11.13       0.15      13.55
C      -6.48      -0.78       7.72
N      -6.84       0.18      13.80
N      -5.22      -0.02      11.79
O     -11.75       0.48      14.61
O     -11.64      -0.20      12.45
O      -7.71      -0.96       7.56
O      -5.54      -0.75       6.87
