16

C       5.76       5.37       6.10
C       2.06       4.18       5.97
C       6.62       4.29       6.16
C       4.42       4.94       6.06
C       4.30       3.53       6.10
O       8.67       5.45       6.11
S       2.88       5.72       5.96
S       5.82       2.75       6.18
O       0.01       3.03       5.90
H       6.11       6.40       6.07
O       8.66       3.17       6.22
F       2.59       1.82       6.06
C       8.09       4.32       6.17
O       0.04       5.31       5.82
C       0.60       4.17       5.89
C       2.95       3.12       6.04
