24

O       3.52       5.60       1.79
O       5.77       5.54       1.71
O       3.52      -0.24       5.79
O       5.77      -0.18       5.87
H       7.10       4.68       2.62
H       7.79       3.71       3.85
H       2.19       0.91       5.28
H       1.49       2.40       4.78
H       7.10       0.68       4.96
H       7.79       1.65       3.73
H       2.19       4.45       2.30
H       1.49       2.96       2.80
C       4.64       5.06       2.11
C       4.64       0.30       5.47
C       4.64       3.85       2.96
C       4.64       1.51       4.62
C       5.87       3.27       3.40
C       3.42       2.12       4.22
C       5.87       2.09       4.18
C       3.42       3.24       3.36
N       7.13       3.77       3.08
N       2.16       1.65       4.58
N       7.13       1.59       4.50
N       2.16       3.71       3.00
