16

C       4.74       8.15      11.06
C       4.71      14.05      11.00
F       7.12      12.40      11.02
F       2.33       9.80      11.09
F       7.13       9.81      11.13
F       2.32      12.39      11.10
C       4.72      12.54      11.05
C       4.73       9.66      11.09
C       5.92      11.80      11.06
C       3.54      10.40      11.09
O       3.66       7.55      11.40
C       3.53      11.80      11.07
O       5.77      14.64      11.37
O       3.64      14.60      10.60
C       5.92      10.41      11.09
O       5.81       7.60      10.69
