25

C       5.14       1.32      12.80
C       4.77       0.24      13.60
H       7.23       4.98       9.70
C       3.98      -0.79      13.06
H       7.01       2.98      11.23
C       3.61      -0.73      11.71
H       2.94       2.60       9.82
C       3.96       0.35      10.93
H       5.72       2.14      13.24
C       3.49      -1.92      13.92
N       4.03       4.14       9.02
H       5.06       0.18      14.64
H       3.02      -1.55      11.30
O       4.29       6.07       7.19
O       6.44       6.45       7.79
H       3.66       0.39       9.88
C       5.32       5.86       7.91
O       3.79      -1.91      15.16
C       5.21       4.79       8.97
O       2.80      -2.83      13.35
C       6.30       4.42       9.78
C       6.16       3.32      10.62
C       4.95       2.61      10.65
C       3.91       3.09       9.83
C       4.71       1.41      11.47
