14

O       8.23      12.09      10.51
O      11.80      21.98      10.76
C       9.20      14.07       9.80
C       9.47      16.67       9.79
C      10.50      17.35      10.36
C       9.11      12.63       9.76
O       9.94      12.05       8.98
C       9.33      15.28       9.81
C      10.66      18.74      10.34
F      11.48      16.66      11.01
C      10.77      19.95      10.29
C      10.85      21.39      10.15
O       9.94      21.90       9.41
H       8.70      17.27       9.29
