16

O       5.85       9.88       1.13
O       3.62       9.65       1.53
O       6.31      15.89       7.37
S       6.36      14.25       4.94
C       5.16      15.37       7.16
S       3.57      11.29       3.97
C       4.77      10.16       1.74
Cl       2.69      13.12       6.86
Cl       7.24      12.41       2.04
C       4.08      13.39       5.89
C       5.85      12.14       3.01
C       5.07      14.35       6.11
C       4.86      11.19       2.80
C       5.57      12.94       4.14
C       4.36      12.59       4.76
O       4.08      15.65       7.77
