29

H      23.11       8.81      14.01
H      21.74       7.95      14.69
H      23.17       6.42      12.54
H      21.43       6.68      12.72
H      22.84       6.62      10.08
H      21.12       6.95      10.34
H      22.08       8.07       9.37
H      21.47       9.71      12.79
O      23.52       7.20      16.24
H      22.11      10.25       9.97
H      21.61      11.38      11.25
O      19.88       9.99       8.94
O      24.02       9.92      12.06
O      19.12      11.25      10.69
H      25.89       8.58      11.08
H      24.98       7.04      11.20
H      24.79       8.05       9.77
H      20.36       8.78      11.79
O      24.53       6.35      14.39
C      23.64       7.04      14.98
C      22.66       7.81      14.11
C      22.41       7.19      12.73
C      22.41       8.20      11.54
C      22.11       7.42      10.26
C      21.34       9.28      11.79
C      21.36      10.43      10.75
C      20.02      10.58      10.07
C      23.81       8.84      11.52
C      24.94       8.08      10.86
