33

C       5.70       8.60       1.65
C       3.86       9.27       3.16
H      10.27       9.22       2.52
C       4.42       8.65       4.42
H       8.00       8.33       3.09
C       5.15       9.46       5.32
H       6.47       9.91      -0.61
C       5.69       8.92       6.48
H       8.73      10.84      -1.14
C       5.51       7.56       6.78
H       5.79       7.79       2.39
C       4.80       6.75       5.88
H       5.16       8.21       0.78
C       4.26       7.29       4.71
C       6.00       7.00       8.07
H       3.21       8.56       2.63
N       4.90       9.72       2.21
H       3.24      10.14       3.41
O      10.97      11.67      -0.48
H       5.27      10.52       5.10
O      11.96      10.28       1.01
H       6.24       9.54       7.18
O       6.66       7.77       8.84
H       4.67       5.69       6.11
O       5.68       5.78       8.32
H       3.71       6.66       4.02
C      10.96      10.72       0.37
C       9.63      10.09       0.66
C       9.43       9.36       1.84
C       8.16       8.87       2.15
C       7.09       9.07       1.27
C       7.31       9.75       0.07
C       8.56      10.27      -0.23
