20

O       4.62       5.14       5.03
O       4.62       0.20       2.52
H       4.62       2.14       6.95
H       4.62       3.20       0.60
H       4.62       5.84       4.33
H       4.62      -0.50       3.22
C       4.62       0.32       5.44
C       4.62       5.02       2.11
C       4.62       1.51       4.59
C       4.62       3.83       2.96
C       4.62       2.81       5.19
C       4.62       2.53       2.36
C       4.62       3.96       4.38
C       4.62       1.38       3.17
O       4.62      -0.84       4.87
O       4.62       0.46       6.72
O       4.62       6.18       2.68
O       4.62       4.88       0.83
O       4.62       3.03       6.52
O       4.62       2.31       1.03
