20

H      23.37       9.77       9.28
H      21.17      12.29      13.48
H      20.28      10.75      13.56
H      22.08       9.79      15.04
H      22.97      11.33      14.96
C      25.24       8.90      13.52
O      25.04       9.08      14.78
O      26.22       8.29      13.00
C      21.10      11.11       9.99
O      21.26      10.96       8.73
O      20.12      11.69      10.57
C      22.15      10.56      10.89
C      24.21       9.46      12.61
C      22.09      10.67      12.28
C      24.25       9.37      11.20
F      25.28       8.74      10.58
C      23.27       9.89      10.36
C      23.09      10.14      13.10
C      21.28      11.20      13.44
C      22.41      10.60      14.37
