20

H      13.60      10.46      11.38
H      15.36       9.45       9.95
H      13.25       4.58      10.77
H      14.40       4.67      12.13
H      11.46       5.61      12.23
H      12.62       5.70      13.58
C      12.99       7.20      12.00
C      12.82       8.58      12.10
C      13.70       9.38      11.33
C      14.69       8.81      10.53
C      14.86       7.41      10.44
C      13.98       6.63      11.19
C      13.61       5.21      11.59
C      12.50       5.86      12.50
C      11.78       9.19      12.97
C      15.92       6.81       9.60
O      15.86       5.54       9.43
O      16.81       7.59       9.11
O      10.89       8.39      13.43
O      11.87      10.45      13.20
