22

H      -1.38      10.21       0.68
H      -1.72      12.67       0.71
H       2.49       8.59       1.60
C       1.96      13.18       1.88
H       3.37      10.87       2.08
H       1.48      15.29       1.83
O       0.84       6.93       0.93
O      -1.25       7.72       0.65
H       3.00      13.32       2.17
O      -2.23      15.09       0.45
O      -0.67      16.43       1.31
C      -0.01       7.88       0.87
C      -0.34      10.36       1.00
C      -0.22      14.08       1.26
C       0.50       9.27       1.14
C       1.49      11.86       1.66
C       0.13      11.67       1.24
C      -1.09      15.26       1.00
C      -0.70      12.80       1.05
C       1.85       9.46       1.53
C       2.33      10.72       1.79
C       1.13      14.27       1.69
