40

H      -2.29      21.14      10.37
H      -2.23      20.13       8.10
C      -5.68      28.31      12.34
C      -5.32      26.90      11.98
H      -6.46      26.06      13.60
C      -5.78      25.84      12.78
H      -5.72      23.72      13.15
C      -5.38      24.54      12.52
C      -4.50      24.27      11.45
C      -3.88      20.64       6.02
H      -3.40      25.12       9.79
C      -3.92      21.25       7.37
H      -4.11      27.46      10.29
C      -4.07      25.33      10.63
C      -4.47      26.63      10.90
C      -4.89      22.22       7.69
H      -2.49      23.76      13.22
C      -3.67      22.18      12.36
C      -4.94      22.78       8.96
H      -1.87      22.44      15.25
C      -2.85      22.74      13.35
H      -4.18      19.12      13.78
C      -2.70      19.95      15.90
C      -3.02      21.43       9.62
C      -2.51      22.01      14.48
H      -4.76      20.42      11.74
C      -2.99      20.87       8.35
C      -2.99      20.70      14.64
N      -4.05      22.95      11.23
C      -3.80      20.13      13.64
C      -4.13      20.86      12.51
O      -1.89      20.48      16.72
C      -4.00      22.39       9.94
O      -3.32      18.83      16.05
O      -4.73      21.07       5.17
O      -3.01      19.73       5.82
O      -5.08      29.24      11.69
O      -6.53      28.47      13.27
H      -5.61      22.50       6.94
H      -5.70      23.51       9.21
