70

C      17.79      18.96       2.35
C      20.52      22.37       6.97
C      21.78      22.77       7.62
C      10.26      23.57       8.91
C      13.17      21.90       7.13
C      15.81      20.80       2.96
C      14.63      20.49       5.79
C      15.39      22.68       6.48
C      15.63      21.48       5.80
C      16.75      19.14       1.43
C      17.86      17.15      -1.58
C      22.64      23.72       7.03
C      16.64      16.86      -2.21
C      14.18      22.88       7.14
C      18.07      21.62       5.73
C      23.34      22.58       9.48
C      17.89      17.90      -0.41
C      19.41      21.95       7.73
C      15.76      20.09       1.76
C      17.85      19.66       3.55
C      23.82      24.11       7.67
C      16.85      20.58       3.88
C      18.22      21.57       7.13
C      15.46      17.34      -1.64
C      16.59      16.10      -3.50
C      15.49      18.07      -0.46
C       9.87      21.18       8.86
C      19.17      22.04       4.96
C      20.37      22.40       5.57
C      13.43      20.71       6.44
H      21.53      21.45       9.31
H      12.01      24.28       7.91
H      11.40      20.00       7.95
N      16.86      21.25       5.12
H      18.56      18.22       2.15
H       9.91      24.57       9.18
H      15.03      21.53       3.19
H      14.81      19.54       5.28
H      16.16      23.45       6.50
H      18.78      16.80      -2.04
H      22.37      24.18       6.08
H      14.04      23.81       7.69
O       7.29      21.74       9.78
H      23.63      22.12      10.42
O      25.86      23.25      10.58
O      26.00      25.06       9.32
H      18.85      18.14       0.04
H      19.48      21.93       8.82
O      17.74      15.61      -3.90
H      14.95      20.30       1.06
H      18.66      19.46       4.25
O       8.04      23.69      10.68
H      24.47      24.85       7.21
O      15.51      15.96      -4.11
H      17.38      21.25       7.75
H      14.52      17.13      -2.15
H      14.55      18.41      -0.01
H       9.25      20.33       9.12
H      19.08      22.08       3.88
H      21.22      22.68       4.95
H      12.67      19.92       6.40
C      25.40      23.97       9.60
C      11.89      22.11       7.84
C      24.18      23.54       8.90
C       9.46      22.46       9.24
C      22.15      22.22       8.86
C       8.17      22.64       9.96
C      16.70      18.37       0.18
C      11.44      23.40       8.21
C      11.07      21.01       8.18
