28

C      -4.51       2.60      20.99
C       4.51      -2.60      13.62
F       4.54      -2.63      16.54
F       2.13      -1.23      12.61
F       0.28      -0.17      14.16
F       2.66      -1.54      18.04
F      -0.29       0.17      20.44
F      -2.66       1.54      16.57
F      -4.55       2.62      18.06
F      -2.14       1.23      22.00
C       3.45      -1.99      14.49
C       3.52      -2.04      15.90
C       2.54      -1.47      16.70
C       1.42      -0.82      16.14
C       1.34      -0.77      14.74
C       2.32      -1.34      13.93
C       0.43      -0.25      16.95
C      -0.43       0.25      17.65
C      -1.42       0.82      18.46
C      -1.34       0.77      19.87
C      -2.32       1.34      20.67
C      -3.45       1.99      20.12
C      -3.52       2.03      18.71
C      -2.54       1.47      17.91
O      -4.35       2.51      22.24
O      -5.48       3.16      20.39
O       4.35      -2.51      12.36
O       5.48      -3.16      14.22
