17

O      15.59       7.30       2.71
C      20.63       3.90       5.49
C      16.51       6.65       2.11
O      17.42       3.24       5.16
C      19.64       4.82       3.40
C      19.48       4.37       4.67
C      18.61       5.37       2.55
C      17.57       6.12       3.00
C      18.14       4.20       5.34
O      17.84       5.23       6.19
O      16.59       6.42       0.86
O      21.78       3.80       4.93
O      20.35       3.62       6.70
H      18.69       5.21       1.47
H      20.65       4.73       2.99
H      16.99       4.99       6.61
H      17.47       6.38       4.05
