28

H       3.77       6.51      13.99
H       3.80       5.07      12.97
H       3.78       6.39      11.05
H       3.85       7.83      12.06
H       1.52       7.47      14.77
H       1.71       8.87      12.92
H       0.10       4.72      12.64
H       1.66       4.11      12.06
H       0.02       6.29      10.93
H       0.03       6.76      14.12
H       0.15       8.29      12.35
H       1.32       5.94       8.93
C       1.83       8.22      10.27
C       3.26       6.01      13.15
C       3.28       6.91      11.88
C       1.07       7.00      13.87
C       1.11       5.02      12.35
C       1.81       5.69      13.55
C       1.85       7.28      11.47
C       1.15       7.97      12.67
C       1.05       5.97      11.14
C       1.76       4.78      14.77
C       1.59       5.37       9.86
O       2.94       8.50       9.73
O       0.69       8.64       9.89
O       2.86       4.51      15.35
O       0.61       4.38      15.15
O       2.28       4.37       9.79
