12

C       7.61       5.64       9.98
O       7.68       6.33      11.02
H       9.24       4.13      11.56
O       7.51       6.08       8.77
H       8.95       2.54      10.84
O      11.27       3.41      10.04
H       6.87       3.84      10.89
O       9.95       4.43       8.52
C      10.14       3.84       9.65
C       8.99       3.61      10.62
O       7.33       3.41       8.90
C       7.63       4.10      10.14
