35

H       6.18      -0.30       1.39
O       5.83       4.35       6.61
H       4.70      -1.83       2.66
H       9.40       4.61       0.54
O       4.15       3.00       5.95
O      10.04       3.74       2.60
O       8.58       4.28       0.95
H       4.35      -2.81       6.76
H       3.11       0.38       6.36
O       2.94      -2.08       5.03
O       4.88      -2.19       6.22
H       6.01       6.55       4.55
C       8.05       1.32       1.22
O       5.98       0.88       7.25
O       3.76       0.49       7.07
C       4.77      -0.62       4.46
C       5.14       0.58       5.05
C       5.85       1.57       4.28
C       8.90       3.81       2.17
C       4.08      -1.70       5.25
C       6.32       1.17       2.99
C       5.02       0.69       6.54
C       7.29       1.97       2.34
C       7.71       3.18       2.86
C       7.10       3.68       4.05
C       6.17       2.90       4.74
C       5.34       3.46       5.86
C       5.88      -0.05       2.41
C       5.06      -0.91       3.10
S       7.81       5.33       4.50
O       9.00       0.58       1.62
O       8.83       5.09       5.48
O       8.11       5.93       3.23
O       6.72       6.24       5.19
O       7.71       1.49      -0.00
