25

O       0.61      11.11       0.24
H      -2.13      12.91       2.03
O       0.41      12.95       1.51
H      -4.12       9.48       3.66
O      -4.51      13.33       2.77
H      -2.22       8.05       3.00
O      -5.50      11.53       3.67
H       3.27       7.87       2.19
H       1.68       9.73       2.66
H      -1.37       7.34       0.75
H       0.32       5.58       0.41
C      -1.06       9.66       2.14
C      -1.02      11.06       1.93
C      -2.13      11.85       2.26
C      -3.27      11.28       2.84
C      -3.26       9.92       3.15
C      -2.18       9.12       2.79
C       0.09      11.76       1.20
C      -4.49      12.12       3.10
C       2.23       7.80       1.89
C       1.34       8.84       2.14
C       0.00       8.69       1.76
C      -0.35       7.51       1.09
C       0.60       6.52       0.88
N       1.87       6.64       1.30
