36

H      -3.19      10.56       3.18
H      -3.83       6.30       3.07
H      -3.83       6.26       5.57
H      -2.39       6.64       1.25
H      -2.38       6.68      -1.21
H      -4.69      10.32      -1.15
H      -4.67      10.29       1.31
H      -3.36      10.68      -3.00
H      -3.27      10.70      -5.49
H      -3.58       6.43      -5.56
H      -3.70       6.38      -3.07
H      -3.21      10.49       5.67
C      -3.30       8.60      -7.17
C      -3.35       9.58       5.09
C      -3.35       9.62       3.70
C      -3.52       8.44       2.95
C      -3.68       7.22       3.64
C      -3.69       7.19       5.03
C      -3.52       8.37       5.77
C      -2.91       7.44       0.73
C      -2.91       7.47      -0.66
C      -3.54       8.50      -1.37
C      -4.16       9.52      -0.63
C      -4.15       9.51       0.76
C      -3.54       8.32       7.27
C      -3.53       8.47       1.47
C      -3.42       9.74      -3.55
C      -3.37       9.76      -4.94
C      -3.41       8.57      -5.67
C      -3.53       7.35      -4.99
C      -3.58       7.33      -3.60
C      -3.52       8.53      -2.85
O      -3.45       7.50      -7.79
O      -3.06       9.73      -7.70
O      -3.73       7.17       7.79
O      -3.37       9.41       7.90
