30

H     -12.77      10.76       9.96
H     -14.25      16.00       4.32
H     -17.55      13.50       5.51
H     -16.30      12.87       7.59
H     -12.24      14.88      11.08
H     -13.54      15.58       9.07
N     -14.05      11.23       7.68
N     -12.65      15.34       6.31
O     -11.96      11.17      12.31
O     -16.40      16.33       3.07
H     -14.28      11.55       6.75
H     -13.58      10.34       7.72
H     -12.21      15.25       7.22
H     -12.33      16.10       5.71
O     -17.63      14.42       3.15
O     -10.89      13.17      12.37
C     -11.71      12.34      11.85
C     -16.71      15.20       3.59
C     -12.43      12.78      10.63
C     -15.96      14.78       4.80
C     -12.92      11.82       9.74
C     -13.59      12.20       8.56
C     -14.69      15.30       5.03
C     -13.94      14.90       6.16
C     -16.55      13.88       5.70
C     -15.84      13.53       6.85
C     -12.62      14.14      10.38
C     -13.33      14.52       9.24
C     -13.82      13.58       8.32
C     -14.55      14.02       7.10
