20

O      19.35       6.15       2.99
O      19.38       6.01       5.19
H      18.80       0.22       3.71
H      20.42       3.95       2.27
C      17.50       4.15       5.94
C      18.89       1.31       3.77
C      19.80       3.40       2.97
C      18.26       3.40       4.88
C      18.18       2.01       4.74
C      19.09       4.06       3.96
C      20.45       1.27       1.82
C      19.70       2.01       2.87
N      17.29       1.23       5.63
N      19.28       5.53       4.06
O      16.65       4.99       5.52
O      17.79       3.84       7.14
O      20.13       0.05       1.62
O      21.36       1.92       1.20
O      17.71       0.13       6.01
O      16.19       1.73       5.89
