58

C      25.69      16.84      22.97
C      26.03      15.50      22.69
C      25.06      14.51      22.70
C      23.72      14.82      22.99
C      23.38      16.16      23.27
C      24.35      17.15      23.26
C      26.68      17.86      22.96
C      27.54      18.73      22.96
H      29.83      19.34      24.74
H      28.08      21.04      21.16
H      24.50       6.61      17.60
H      20.98       8.40      15.81
C      19.76      13.78      26.02
C      19.43      13.50      24.67
C      20.40      13.51      23.68
C      21.74      13.80      24.00
C      22.08      14.08      25.34
C      21.11      14.07      26.33
C      18.77      13.76      27.03
C      17.91      13.75      27.90
H      27.07      15.25      22.48
H      25.33      13.47      22.49
H      22.34      16.41      23.49
H      24.07      18.18      23.47
H      17.39      11.97      30.23
H      15.58      15.50      28.48
H      18.39      13.29      24.42
H      20.14      13.30      22.65
H      23.12      14.30      25.59
H      21.38      14.27      27.37
C      22.74      10.82      20.00
C      22.48      10.49      21.35
C      22.48      11.47      22.33
C      22.74      12.81      22.00
C      23.00      13.15      20.66
C      23.00      12.16      19.68
C      22.74       9.81      19.00
C      22.74       8.95      18.14
H      22.29       9.45      21.62
H      22.28      11.21      23.37
H      23.19      14.19      20.40
H      23.19      12.43      18.64
N      22.73      13.81      23.00
C      29.57      19.93      23.87
C      28.52      19.74      22.95
C      28.68      20.80      22.03
N      29.74      21.55      22.38
N      30.30      21.01      23.51
C      23.64       6.88      16.99
C      22.74       7.95      17.14
C      21.84       7.79      16.07
N      23.29       6.14      15.92
N      22.17       6.71      15.35
N      15.71      13.17      30.71
C      16.78      12.83      29.97
C      16.92      13.74      28.91
C      15.85      14.64      29.08
N      15.13      14.29      30.16
