35

C       3.81       7.74      25.63
O       0.02      10.48      24.65
C       3.17       8.68      24.82
O       1.78      10.51      23.22
C       6.88       2.49      24.15
O       6.27       2.12      23.09
C       6.15       3.45      25.04
O       8.03       2.11      24.53
F       2.38       5.92      29.49
C       6.77       3.97      26.18
C       6.09       4.85      27.02
F       2.02       4.72      27.69
C       4.77       5.23      26.72
F       3.68       4.23      29.02
H       0.21       8.87      26.47
C       4.15       4.70      25.58
F       5.42       6.28      29.56
H       1.34       7.23      27.92
F       5.83       7.65      27.90
C       4.83       3.83      24.75
H       4.82       7.42      25.37
C       3.94       6.18      27.61
F       4.11       8.00      29.21
H       3.67       9.10      23.95
C       3.00       5.27      28.46
C       4.83       7.03      28.58
C       1.17      10.10      24.26
H       7.79       3.68      26.40
C       1.87       9.09      25.12
H       6.60       5.23      27.90
C       1.23       8.55      26.24
H       3.13       5.00      25.33
C       1.87       7.62      27.05
H       4.35       3.42      23.86
C       3.17       7.19      26.75
