14

H       9.37      11.26      18.38
O       6.23      11.51      20.70
O      12.44       7.54      19.03
C      11.45       7.34      19.83
O      11.30       6.33      20.61
O       7.34      12.50      18.96
C       7.18      11.61      19.86
H      11.16       9.60      18.43
C      10.33       9.45      19.13
C      10.37       8.33      19.90
F       8.00       9.64      20.91
H       9.58       8.09      20.61
C       9.30      10.45      19.12
C       8.23      10.55      19.93
