26

O      16.27      12.12       0.52
O      15.06      10.87      -0.95
H      15.10      14.05      -1.89
H      15.70      14.55      -0.30
H      14.13      16.29      -0.28
H      13.54      15.77      -1.86
O      10.40      15.94      -0.89
H      13.15      15.34       1.82
O      11.68      17.07       0.60
H      11.83      14.16       1.75
H      14.69      13.58       1.80
H      13.37      12.42       1.70
H      10.96      13.40      -0.54
H      11.65      14.07      -2.00
H      13.23      12.34      -2.04
H      12.53      11.67      -0.58
C      15.25      11.90      -0.22
C      11.43      16.07      -0.15
C      14.79      14.27      -0.86
C      13.75      15.42      -0.84
C      12.44      14.93      -0.18
C      12.76      14.48       1.26
C      13.79      13.32       1.23
C      14.19      12.99      -0.22
C      12.94      12.59      -1.01
C      11.90      13.73      -0.99
