30

O       4.02      18.99      22.45
O       1.74      18.89      22.55
H       1.24      15.02      19.19
H       1.80      13.34      17.65
H       5.49      13.84      18.02
H       4.18      12.73      18.41
H       3.41      14.09      20.16
H       4.92      14.99      19.99
H       3.53      16.08      15.79
H       5.17      15.64      16.26
H       3.54      17.56      17.61
H       1.57      14.55      16.39
H       1.34      16.28      17.96
H       5.02      16.85      18.26
C       4.03      11.61      13.86
C       2.13      14.33      17.31
C       4.41      13.79      18.23
C       4.02      14.66      19.45
C       2.91      17.59      21.01
C       3.64      14.27      16.97
C       1.87      15.41      18.38
C       3.22      15.90      18.98
C       4.03      16.61      17.86
C       4.14      15.69      16.62
C       3.02      16.81      20.08
C       3.87      13.35      15.86
C       4.00      12.57      14.94
C       2.88      18.55      22.08
O       5.17      11.25      13.42
O       2.89      11.21      13.47
