16

H      11.47       3.66      29.25
H      12.03      -1.01      27.66
O      13.48       3.70      30.63
O      14.68       1.77      30.62
C      12.70       1.88      29.34
C      10.68       2.06      28.04
O       8.83       0.78      26.28
C      13.70       2.50      30.27
O      10.10      -1.11      26.29
C       9.84       0.09      26.64
C      10.81       0.74      27.58
F       9.64       2.85      27.67
C      11.93       0.01      28.02
C      12.86       0.56      28.89
C      11.61       2.63      28.91
H      13.72      -0.02      29.23
