45

N      23.75      10.76      12.87
N      24.38      11.20      11.74
H      23.93      12.66      10.25
H      21.92      11.26      13.84
N      16.92      21.52      19.02
N      17.22      22.43      18.04
N      13.51      17.43       5.59
N      13.86      18.69       5.18
H      17.89      22.27      16.02
H      16.91      19.39      19.13
N      21.06      13.38      10.32
N      20.15      14.30      10.28
N      21.46      13.25      11.64
H      15.15      20.20       5.96
H      14.00      16.23       7.27
H      20.93      14.22      13.49
H      16.72      16.53       8.47
N      15.58      19.56       9.03
N      16.26      19.35      10.12
N      15.69      18.41       8.26
H      17.18      20.00      14.40
C      19.03      15.89      11.84
C      17.62      17.52      11.16
C      18.29      17.44      13.31
N      18.45      18.18      16.82
N      18.68      17.41      15.80
N      17.83      19.33      16.33
C      23.63      12.16      11.17
C      22.49      12.35      11.95
C      22.60      11.45      13.02
C      17.59      21.75      16.93
C      17.51      20.38      17.20
C      17.09      20.27      18.53
C      14.73      19.21       6.07
C      14.93      18.26       7.09
C      14.15      17.16       6.75
C      19.93      14.78      11.55
C      20.77      14.11      12.42
C      16.82      18.10      10.08
C      16.47      17.50       8.89
C      18.22      18.02      14.65
C      17.67      19.24      14.99
N      18.31      16.41      10.83
N      17.60      18.10      12.36
N      19.04      16.34      13.11
