18

C      24.15      18.16      14.15
N      24.43      18.10      11.10
S      26.64      16.97      14.20
O      29.59      15.33       8.86
S      27.31      16.58      10.09
O      30.84      14.99      10.75
H      24.41      17.74      10.15
O      24.18      17.99      15.42
H      29.38      15.63      12.96
H      23.55      18.39      11.52
O      23.19      18.75      13.50
C      29.79      15.37      10.12
C      25.35      17.59      11.97
C      28.59      15.99      12.30
C      25.26      17.65      13.37
C      28.69      15.92      10.92
C      27.37      16.59      12.69
C      26.57      16.97      11.60
