62

C       8.95       1.27       7.61
C       8.18       1.51       6.30
C      13.34       0.70       8.10
C      17.28       3.31       8.93
C      18.51       4.20       8.88
C      19.24       4.15      10.22
H      16.90      -2.18       5.45
H      15.61      -0.95       5.30
H      15.23      -3.99       5.47
H      13.89      -2.82       5.48
H      14.59      -1.99       3.20
H      14.22      -3.71       3.18
H      15.91      -3.18       3.19
C      14.60       0.14       7.70
H      11.60      -2.16       8.79
H      18.61       0.33       6.12
H      18.39       1.94       6.87
H      16.89       0.86       4.42
H      16.58       2.43       5.16
H      19.00       3.09       4.74
O      12.71      -4.23       8.19
H      18.10       2.76       3.25
H      19.24       1.55       3.88
O      13.57       4.84       9.27
O      14.39       5.12       7.16
O      14.95      -4.06       8.58
O      15.82      -1.92       7.15
H      12.23       2.49       8.59
H      10.15      -0.37       6.85
O      16.89       0.48       7.13
H      10.91       1.24       6.69
O      10.98       0.39       8.60
H       8.36       0.63       8.28
O      16.61       3.28       7.62
H       9.11       2.22       8.13
H       8.74       2.16       5.61
H       7.22       2.00       6.50
H       7.98       0.56       5.78
H      17.55       2.28       9.19
H      16.56       3.68       9.68
H      19.17       3.86       8.07
H      18.22       5.24       8.65
H      18.61       4.54      11.04
H      20.16       4.75      10.19
H      19.52       3.12      10.48
C      14.72      -1.30       7.67
C      12.42      -1.51       8.50
C      12.24      -0.16       8.40
C      13.81      -3.57       8.31
C      14.07       4.41       8.17
C      13.68      -2.09       8.18
C      14.26       2.94       8.04
C      15.70       1.04       7.44
C      15.52       2.41       7.65
C      13.19       2.10       8.25
C      15.86      -1.95       5.70
C      14.91      -3.00       5.11
C      14.91      -2.97       3.59
C      17.89       1.14       6.30
C      17.36       1.68       4.98
C      18.49       2.30       4.17
C      10.29       0.61       7.35
