27

H       5.46       1.61       6.82
H       9.08      -3.14      11.20
H       8.01      -1.89       9.32
C       6.60      -0.87      10.60
H       5.32      -0.02      12.12
C       7.83      -2.25      12.71
C       8.27      -2.44      11.39
C       7.67      -1.75      10.35
C       6.16      -0.70      11.92
C       6.78      -1.37      12.97
C       5.94      -0.19       9.48
C       4.58      -0.34       9.12
C       6.50       0.67       8.52
C       3.53      -1.17       9.77
C       7.89       1.19       8.38
H       2.86      -0.56      10.38
H       2.91      -1.71       9.04
H       8.46       0.97       9.29
H       8.40       0.72       7.53
N       4.34       0.38       8.01
N       5.50       0.99       7.67
O       9.32      -3.91      13.42
O       8.25      -2.70      15.02
H       6.46      -1.22      14.00
C       8.50      -3.00      13.83
H       4.00      -1.91      10.44
H       7.89       2.27       8.22
