24

C       2.84       6.85      35.10
C       2.83       3.93      35.17
C       4.02       6.07      35.12
C       1.62       4.67      35.14
C       4.01       4.70      35.17
C       1.62       6.12      35.13
C       5.53       6.17      35.12
C       5.52       4.59      35.17
H       5.95       6.66      36.02
H       5.99       6.62      34.23
N       0.38       4.08      35.16
N       0.39       6.72      35.10
H       5.94       4.09      34.28
H       5.97       4.14      36.07
H       0.40       3.06      35.06
H      -0.35       4.55      34.63
H       0.42       7.74      35.20
H      -0.35       6.25      35.62
O       1.78       8.98      35.12
O       4.05       8.88      35.13
C       2.91       8.32      35.12
O       4.02       1.90      35.16
C       2.89       2.46      35.17
O       1.76       1.80      35.17
