22

O      -7.59      12.71       6.48
O      -5.28       8.08       1.46
O      -4.15      10.04       1.31
F      -7.43       9.10       0.28
H      -4.46      10.46       3.91
H     -11.16      11.36       1.41
H     -10.11      12.23       3.47
H      -5.77      11.82       5.49
C      -5.13       9.33       1.70
C      -8.12       9.90       1.12
C      -9.42      10.24       0.79
C     -10.14      11.09       1.66
C      -9.55      11.57       2.81
C      -8.21      11.26       3.16
C      -7.46      10.38       2.28
C      -6.10      10.09       2.58
C      -5.51      10.64       3.71
C      -6.24      11.43       4.59
C      -7.57      11.76       4.33
C      -8.20      12.63       5.37
I     -10.25       9.57      -1.01
O      -9.31      13.27       5.15
