16

O      13.45      -2.86       7.71
O      14.52      -3.93       6.01
Br      11.15       1.14       4.69
C      12.77      -1.09       5.34
C      12.85      -2.43       5.43
C      12.15      -0.42       4.21
C      12.18      -0.81       2.92
N      13.06      -1.94       2.50
O      12.50      -2.98       2.13
O      14.28      -1.72       2.51
H      13.17      -0.46       6.13
H      12.43      -3.08       4.66
O      11.68       0.92       1.37
O      10.46      -1.01       1.32
C      13.66      -3.12       6.46
C      11.36      -0.26       1.78
