36

C       8.39      12.92      25.56
C       7.20      13.63      25.75
C       7.20      15.03      25.68
C       8.42      15.72      25.38
C       9.62      14.98      25.18
C       9.59      13.59      25.29
C       8.43      17.12      25.29
C       8.44      18.34      25.22
H       6.28      13.08      25.95
H      10.50      13.00      25.16
C       8.45      19.75      25.17
C       7.24      20.45      24.93
C       7.24      21.85      24.94
C       9.66      20.46      25.39
C       9.64      21.86      25.36
H      10.55      22.43      25.51
C       8.44      22.54      25.15
H       6.32      22.42      24.78
N      10.80      15.67      24.93
N       6.04      15.77      25.84
N      10.84      19.75      25.59
N       6.06      19.73      24.75
H      10.68      16.59      24.52
H      11.53      15.12      24.49
H       6.17      16.74      26.11
H       5.29      15.30      26.34
O       7.25      10.85      25.57
O       9.51      10.84      25.69
H       6.19      18.78      24.41
H       5.31      20.23      24.28
O       9.56      24.63      25.14
O       7.30      24.61      25.31
H      10.71      18.81      25.95
H      11.58      20.27      26.05
C       8.38      11.42      25.61
C       8.43      24.04      25.20
