22

O      21.64      12.61       1.70
O      20.34      14.33       0.97
O      16.73      11.63       5.11
O      17.63       9.57       4.77
H      17.68      12.91       0.35
H      17.94      14.06       1.68
H      16.19      11.63       1.78
H      16.45      12.85       3.05
H      17.51       9.66       1.59
H      18.90       9.34       2.64
H      18.94      10.91       0.09
H      20.32      10.51       1.14
H      19.92      11.56       3.55
C      20.52      13.16       1.45
C      19.27      12.34       1.75
C      17.92      13.00       1.42
C      16.95      12.20       2.33
C      17.91      11.24       3.08
C      18.36      10.13       2.10
C      19.30      10.91       1.13
C      17.39      10.77       4.43
N      19.12      12.11       3.21
