28

C      11.99      16.45       7.71
C      12.55      12.14       1.27
C      12.43      15.71       6.59
C      11.48      12.71       2.01
C      10.42      11.82       1.73
H      14.56      15.14       6.20
H      11.94      13.96       5.43
H      12.58      13.91       3.37
H       9.52      17.15       4.67
C      10.60      17.03       4.46
H      11.14      17.61       5.22
H      10.79      17.48       3.47
I      10.01      16.76       8.29
I      14.48      12.91       1.18
H       9.40      11.81       2.09
H       9.10      15.93       2.50
H       9.31      14.35       1.70
H       8.50      14.47       3.28
N      13.02      16.79       8.52
C       9.32      14.87       2.67
N      12.21      11.04       0.60
N      14.15      16.27       7.95
N      10.88      10.84       0.91
C      11.74      15.04       5.49
C      11.59      13.80       2.94
C      11.01      15.58       4.49
C      10.65      14.71       3.35
C      13.81      15.62       6.81
