31

C      16.43      10.37       8.27
C      15.92       8.00       8.18
C      21.09      11.94       8.89
H      15.21       7.19       8.12
H      19.98       7.45       8.67
H      16.05      11.39       8.25
H      21.39      14.05       9.06
H      17.31      12.82       8.56
H      18.96      14.59       8.93
N      17.64       6.31       8.06
O      13.25       8.77       8.63
O      23.36      12.22       9.55
H      22.12       8.39       9.05
C      14.04       9.64       8.13
C      22.56      11.70       8.71
O      13.69      10.75       7.60
O      22.89      11.07       7.65
O      18.75       6.03       7.56
O      16.81       5.46       8.43
O      21.77       9.26       9.34
C      17.28       7.73       8.21
C      15.49       9.34       8.19
C      20.66      13.26       8.97
C      19.29      13.56       8.88
C      18.36      12.55       8.68
C      18.76      11.19       8.63
C      20.14      10.88       8.79
C      17.80      10.11       8.42
C      18.27       8.75       8.38
C      19.63       8.48       8.63
C      20.52       9.50       8.90
