18

C      12.80       8.60       3.21
H      12.12       9.65       5.70
C      13.42       9.62       3.97
H      14.13      11.92       5.18
C      12.94      10.18       5.21
H      15.16      10.89       3.25
C      13.32      11.39       5.69
N      13.36       8.54       1.98
N      14.35       9.47       1.92
C      12.90      13.51       7.02
H      13.71      14.15       6.66
C      14.41      10.11       3.10
H      10.91      10.97       7.53
C      11.49      11.89       7.46
N      11.98      13.99       7.88
C      12.64      12.17       6.71
H      11.98       7.94       3.49
N      11.10      12.97       8.15
