14

C      -0.67       7.77      16.54
C      -1.90       7.76      15.86
C      -1.05       7.75      17.90
N      -2.92       7.74      16.74
N      -2.39       7.73      18.00
H      -2.10       7.73      14.79
H      -0.43       7.77      18.79
N       2.92       7.74      15.79
N       2.39       7.73      14.53
C       0.67       7.77      15.99
C       1.90       7.76      16.67
C       1.05       7.75      14.64
H       0.43       7.77      13.75
H       2.10       7.73      17.74
