32

H       6.12       8.98       2.99
H      10.43       8.99       2.97
H       6.16       8.90      12.37
H      10.47       8.90      12.36
O       9.45       8.88      14.58
O       7.18       8.87      14.58
O       7.13       8.99       0.77
O       9.40       8.98       0.76
H      10.53       8.96       6.52
H       6.04       8.96       6.54
H      10.55       8.94       8.81
H       6.05       8.93       8.82
O      10.71       8.96       5.56
O       5.86       8.96       5.58
O      10.73       8.93       9.77
O       5.88       8.92       9.78
C       8.32       8.88      14.00
C       8.27       8.98       1.34
C       8.27       8.98       2.85
C       7.06       8.97       3.54
C       7.06       8.96       4.93
C       8.28       8.96       5.65
C       9.50       8.97       4.92
C       9.49       8.98       3.53
C       8.29       8.95       7.06
C       8.30       8.94       8.29
C       8.30       8.92       9.70
C       7.08       8.92      10.43
C       7.09       8.90      11.82
C       8.31       8.89      12.50
C       9.53       8.90      11.81
C       9.53       8.92      10.42
