16

H       4.84       4.40       5.75
H       2.31       4.44       5.57
H       0.93       7.46       8.85
H       2.10       8.70      10.64
H       4.55       8.43      10.97
H       5.87       6.97       9.46
C       2.00       7.35       8.99
C       2.66       8.04       9.98
C       4.05       7.89      10.17
C       4.79       7.08       9.34
C       4.15       6.38       8.29
C       2.72       6.49       8.13
C       2.83       5.02       6.34
C       4.24       4.97       6.45
N       2.10       5.77       7.15
N       4.87       5.62       7.41
