34

H       2.28      30.96      20.00
H       2.28      30.23      15.33
H       2.17      34.63      17.62
H       2.36      32.58      18.96
H       2.17      26.57      17.71
H       2.36      28.61      16.37
H      -0.00      28.21      22.42
H      -0.00      32.98      12.91
C       2.07      26.30      20.36
C       2.07      34.89      14.97
C       2.17      27.59      19.60
C       2.17      33.61      15.73
C       2.22      28.85      20.22
C       2.31      30.01      19.47
C       2.22      32.35      15.11
C       2.31      31.18      15.86
C       2.23      33.66      17.12
C       2.33      32.49      17.88
C       2.23      27.54      18.20
C       2.33      28.70      17.45
C       2.37      29.97      18.06
C       2.37      31.22      17.27
S       1.91      29.08      21.97
S       1.91      32.12      13.36
O       1.03      25.61      20.14
O       3.05      26.01      21.12
O       1.03      35.59      15.19
O       3.05      35.18      14.21
O       3.11      28.85      22.76
O       1.27      30.35      22.13
O       0.99      27.88      22.30
O       3.11      32.34      12.57
O       1.27      30.84      13.20
O       0.99      33.31      13.03
