19

C      18.62      15.05      19.38
H      23.33      11.78      20.73
S      22.68      14.51      18.98
S      19.72      12.39      21.00
H      18.45      15.55      17.48
O      20.11      17.09      17.58
O      22.40      17.03      17.69
C      21.23      16.57      17.92
C      21.27      10.38      22.13
O      20.14       9.98      22.61
O      22.41       9.86      22.35
C      20.07      14.67      19.27
C      22.31      12.16      20.64
C      21.16      15.30      18.67
C      21.23      11.57      21.27
C      21.90      13.30      19.91
C      20.51      13.54      20.00
O      17.92      15.47      18.31
O      18.06      14.90      20.46
