34

C      10.96       8.81       4.24
C       5.54       8.77       8.59
H       6.15       9.05       1.77
H       6.20       9.00       4.27
H      10.44       8.83       1.70
H       6.06       8.74      11.13
H      10.35       8.96      11.06
H      10.30       8.97       8.56
O       9.35       9.08      13.31
O       7.13       8.57      13.33
O       7.15       9.19      -0.48
O       9.37       8.68      -0.51
H      10.20       8.49       6.00
H       6.30       8.48       6.83
O      11.09       8.58       5.57
O      11.95       8.97       3.55
O       5.41       8.55       7.25
O       4.55       8.92       9.28
C       8.23       8.82      12.75
C       8.27       8.93       0.08
C       8.29       8.92       1.58
C       7.09       8.98       2.31
C       7.12       8.96       3.70
C       8.35       8.89       4.39
C       9.57       8.85       3.65
C       9.51       8.86       2.26
C       8.30       8.87       5.80
C       8.19       8.86       7.03
C       8.15       8.85       8.44
C       6.93       8.79       9.18
C       6.99       8.78      10.57
C       8.21       8.83      11.25
C       9.41       8.91      10.52
C       9.38       8.91       9.13
