40

H      -1.39      15.69       2.84
H      -5.62      16.08       2.13
H      -1.41      23.89       7.40
H      -5.60      24.36       6.53
O      -2.37      26.05       8.07
O      -4.64      26.10       7.98
H      -5.63      18.68       5.28
H      -1.38      19.75       3.30
H      -5.01      21.71       3.50
H      -2.00      19.90       6.82
O      -4.57      14.13       1.06
O      -2.44      13.74       1.78
C      -3.50      25.57       7.75
C      -3.51      14.44       1.70
O      -6.39      18.77       4.68
O      -6.88      18.34       2.53
O      -0.62      19.29       3.71
O      -0.13      17.26       4.52
O      -5.94      21.77       3.80
O      -7.05      22.36       5.65
O      -1.07      20.19       6.71
O       0.04      22.06       6.19
C      -3.51      15.75       2.41
C      -2.31      16.26       2.93
C      -2.29      17.51       3.55
C      -3.50      18.22       3.75
C      -4.72      17.66       3.27
C      -4.70      16.47       2.55
C      -3.51      19.47       4.43
C      -3.50      20.54       5.02
C      -3.50      21.79       5.70
C      -2.33      22.26       6.34
C      -2.33      23.51       6.96
C      -3.50      24.26       7.04
C      -4.68      23.79       6.45
C      -4.68      22.59       5.74
C      -6.08      18.30       3.44
C      -0.93      18.00       3.99
C      -5.99      22.22       5.08
C      -1.02      21.51       6.39
