50

H      -0.86      17.18       5.72
H       1.26      17.45       2.52
H      -1.57      17.47       3.71
H      -4.36      18.05       0.11
O      -1.44      17.09       8.04
O       0.18      17.77       9.42
O       2.62      18.31       8.47
H      -3.17      18.18       2.26
H      -4.60      17.11      -2.07
H      -1.92      17.51      -3.51
H      -1.94      18.03      -5.75
H      -5.70      16.88      -3.98
O      -5.56      17.36      -8.47
O      -1.50      18.55      -8.03
H       2.97      18.14       3.99
H       3.89      18.50       6.25
O      -3.13      17.95      -9.44
H      -6.74      16.91      -6.22
H      -1.45      15.57      -2.78
H       0.71      14.42      -2.51
H       1.90      14.50      -0.30
H       0.90      15.70       1.59
C       2.05      18.09       7.28
C       0.68      17.71       7.09
C       0.18      17.50       5.80
C       0.97      17.65       4.65
C       0.48      17.45       3.29
C      -0.82      17.34       2.92
C      -1.41      17.15       1.60
C      -0.80      16.46       0.49
C      -1.49      16.42      -0.79
C      -2.77      17.06      -0.94
C      -3.36      17.61       0.20
C      -2.69      17.67       1.42
C      -3.52      17.15      -2.19
C      -3.00      17.36      -3.42
C      -3.72      17.44      -4.68
C      -3.00      17.77      -5.83
C      -3.57      17.78      -7.11
C      -4.95      17.44      -7.27
C      -5.69      17.16      -6.10
C      -5.10      17.14      -4.85
C      -2.68      18.12      -8.24
C      -0.91      15.66      -1.84
C       0.29      15.00      -1.68
C       0.96      15.04      -0.44
C       0.41      15.73       0.62
C       2.32      18.01       4.86
C       2.85      18.22       6.12
C      -0.25      17.51       8.23
