32

H       7.80      14.33       4.65
H       6.90      12.18      10.14
H       7.71      18.94       5.90
H       6.78      14.31      11.38
H       7.82      16.80       4.66
H       6.80      16.79      11.39
C       7.36      20.59       8.01
C       7.31      16.27       8.02
C       7.48      14.14       6.79
C       7.12      16.98       9.25
C       6.92      14.87      10.45
C       7.68      16.25       5.59
C       6.93      16.24      10.46
C       7.67      14.88       5.58
C       7.24      10.52       8.03
C       7.26      12.03       8.03
C       7.34      19.09       8.01
C       7.48      12.72       6.82
C       7.12      18.39       9.22
C       7.71      11.99       5.62
C       7.07      12.72       9.21
C       6.90      19.13      10.42
C       7.54      18.39       6.83
C       7.09      14.13       9.24
C       7.51      16.98       6.80
C       7.29      14.85       8.02
N       7.91      11.39       4.63
N       6.70      19.73      11.41
O       6.23      21.16       8.04
O       8.38       9.95       8.00
O       8.51      21.14       7.99
O       6.10       9.98       8.05
