20

H       1.35       6.95       4.25
H       1.13       5.41       3.42
H      -1.21       5.85       3.49
H      -0.99       7.16       4.67
H      -1.02       3.56       4.32
H      -1.19       3.22       6.03
H       1.32       3.33       4.65
H       1.15       3.37       6.40
H       1.17       6.98       6.65
H       1.36       5.49       7.59
H      -0.98       5.07       7.59
H      -1.18       6.73       7.03
C       0.84       5.98       4.31
C      -0.70       6.13       4.42
C      -0.70       3.88       5.31
C       0.83       3.86       5.47
C       0.85       5.93       6.72
C      -0.68       5.78       6.81
N      -1.21       5.26       5.52
N       1.36       5.25       5.50
