22

O       6.06      -1.24       8.14
O       5.89      -0.81      10.36
O      -3.24      -1.39      10.97
O      -3.09      -0.67       8.83
H       3.87      -1.01       6.95
H       1.40      -0.93       6.80
H       3.65      -1.11      11.24
H      -0.82      -0.81       7.93
C       5.40      -1.03       9.21
C       3.90      -1.04       9.12
C       3.26      -1.00       7.85
C       1.89      -0.95       7.77
C       3.14      -1.07      10.28
C       1.09      -0.97       8.95
H      -1.06      -1.17      12.20
C      -0.32      -0.91       8.89
H       1.41      -1.18      12.37
C      -1.09      -1.00      10.04
C      -2.58      -1.01       9.94
C      -0.45      -1.11      11.31
C       0.92      -1.12      11.40
C       1.73      -1.05      10.23
