17

O       4.07       2.68       7.12
C       7.11       1.35       2.00
H       4.93       2.22       7.19
O       6.99       1.46       0.73
O       8.09       0.82       2.63
O       0.50       4.51       5.51
C       1.49       4.03       6.18
S       2.49       3.61       3.64
C       6.02       1.88       2.82
S       6.13       1.75       4.55
C       4.59       2.52       4.72
O       1.61       3.98       7.45
C       3.77       2.88       5.82
C       4.03       2.85       3.47
C       4.85       2.48       2.38
H       4.63       2.63       1.33
C       2.59       3.49       5.38
