34

C      -0.73       8.25      12.47
C      -0.22       9.61      10.74
C      -0.81      10.49      12.74
C       1.53      11.62       5.22
C       1.52       9.39       4.84
C       0.98      10.20       6.89
C       1.59       6.14       2.40
C      -0.82      13.75      15.18
C      -0.60       4.85      14.66
C       1.47      15.07       3.12
C       1.65      12.93       4.66
C       1.65      13.96       4.02
C       1.65       8.30       3.93
C       1.68       7.38       3.13
C      -0.99      12.54      14.40
C      -0.97      11.62      13.61
C      -0.82       6.97      13.09
C      -0.80       5.97      13.78
C       0.20       9.80       9.39
C       0.57       9.97       8.24
N      -0.35       8.34      11.19
N      -0.43      10.73      11.47
N      -1.01       9.28      13.29
N       1.75      10.62       4.34
N       1.14       9.11       6.10
N       1.16      11.48       6.51
O       2.17       6.01       1.27
O       0.91       5.25       3.02
O      -1.37      13.87      16.31
O      -1.53       3.99      14.80
O       2.41      15.90       2.95
O       0.32      15.07       2.54
O       0.56       4.83      15.22
O      -0.05      14.60      14.60
