76

H       2.74      -1.94       5.29
H       1.51      -1.62       4.22
H       2.28      -1.92       0.63
H       2.40      -1.12       2.22
H       3.49      -6.65       5.29
H       4.69      -6.96       4.19
H       3.63      -6.74       0.62
H       3.66      -7.50       2.24
H       4.70      -8.08      -2.29
H       5.75      -9.42      -2.61
H       5.67     -11.90      -4.80
H       5.01     -11.31      -3.34
H       2.76      -5.99      -6.35
H       2.38      -7.13      -7.61
H       3.74      -9.81      -8.76
H       3.81      -8.11      -8.73
H       0.91      -0.66      -2.23
H      -0.13       0.71      -2.51
H      -0.16       3.13      -4.75
H       0.60       2.58      -3.34
H       2.52      -2.87      -6.38
H       2.76      -1.77      -7.72
H       1.55       0.97      -8.76
H       1.26      -0.69      -8.74
C       3.13      -4.29       5.80
C       0.67       2.52      -7.03
C       4.74     -11.33      -7.05
C       3.36      -5.51       2.22
C       2.99      -4.32       1.48
C       0.94       0.10      -4.11
C       1.51      -1.06      -4.75
C       3.93      -7.75      -4.77
C       3.62      -7.82      -6.17
C       1.72      -1.02      -6.17
C       1.43       0.15      -6.91
C       0.87       1.29      -6.26
C       0.61       1.25      -4.87
C       3.90      -8.99      -6.91
C       4.53     -10.10      -6.28
C       4.87     -10.03      -4.91
C       4.56      -8.88      -4.15
C       2.68      -3.12       2.23
C       2.76      -3.12       3.63
C       3.10      -4.30       4.31
C       3.39      -5.48       3.63
C       3.30      -5.49      -1.95
C       2.37      -3.24      -1.94
C       2.93      -4.34       0.04
C       3.58      -6.56      -4.00
C       2.74      -4.40      -4.03
C       1.91      -2.23      -3.98
N       2.81      -4.37      -2.64
N       2.43      -3.24      -0.61
N       3.37      -5.45      -0.63
N       3.70      -6.56      -2.64
N       3.12      -5.48      -4.69
N       1.92      -2.18      -2.62
N       2.29      -3.33      -4.68
N       2.50      -1.89       4.30
N       2.28      -1.95       1.65
N       3.70      -6.71       4.30
N       3.71      -6.69       1.64
N       4.87      -8.95      -2.80
N       5.48     -11.09      -4.22
N       3.05      -6.80      -6.91
N       3.52      -8.96      -8.26
N       0.72       0.20      -2.75
N       0.05       2.33      -4.16
N       2.20      -2.06      -6.93
N       1.72       0.09      -8.28
O       5.69     -12.15      -6.76
O       4.03      -3.61       6.39
O       1.49       2.76      -8.00
O       3.93     -11.58      -8.03
O      -0.27       3.34      -6.75
O       2.23      -4.98       6.41
