22

O      12.25       8.14       8.41
O      10.15       7.36       8.02
O      10.17      13.60       1.35
C      11.14       8.13       7.78
C      10.96       9.11       6.67
O      12.25      14.43       1.71
C       9.73       9.13       5.94
C       9.56      10.01       4.90
H       8.96       8.42       6.23
C      10.59      10.92       4.53
C      10.44      11.83       3.46
H       8.62      10.03       4.34
H       9.52      11.85       2.89
C      11.46      12.69       3.12
C      12.68      12.68       3.84
H      13.47      13.37       3.55
C      12.86      11.80       4.89
H      13.80      11.78       5.44
C      11.83      10.90       5.27
H      12.91       9.95       6.90
C      11.98       9.98       6.33
C      11.28      13.64       1.97
