40

H      -3.54       7.91       6.35
H      -5.14       5.50       2.18
H      -3.72      10.06       7.58
H      -4.96       5.51      -0.29
H      -5.71      11.83       4.21
H      -2.97       9.31      -0.14
H      -5.48       9.72       2.95
H      -3.20       9.36       2.31
H      -6.14       6.67       5.64
H      -2.54       5.50       3.61
H      -6.18       4.48       6.84
H      -2.50       3.36       4.90
C      -4.49       8.66       4.55
C      -4.19       7.43       2.43
C      -4.01       8.77       5.88
C      -4.67       6.34       1.68
C      -4.11       9.97       6.56
C      -4.57       6.35       0.29
C      -4.71      11.09       5.97
C      -3.97       7.43      -0.38
C      -5.21      10.97       4.66
C      -3.47       8.49       0.37
C      -5.10       9.78       3.96
C      -3.58       8.51       1.75
C      -4.88      12.37       6.69
C      -3.80       7.44      -1.85
C      -4.34       6.21       4.55
C      -5.35       5.93       5.47
C      -3.33       5.27       4.33
C      -5.36       4.72       6.15
C      -3.31       4.08       5.04
C      -4.34       3.79       5.95
C      -4.34       2.49       6.70
N      -4.34       7.45       3.84
O      -5.69      13.23       6.21
O      -2.99       8.28      -2.36
O      -4.26      12.57       7.81
O      -4.42       6.57      -2.58
O      -3.21       1.99       7.02
O      -5.47       1.96       6.97
