10

N       1.26       5.17      12.95
N      -1.52       5.18      13.01
Cl       1.37       6.97      11.03
Cl      -1.65       3.25      14.78
Cl      -1.72       7.16      11.31
Cl       1.46       3.40      14.87
C       0.56       5.99      12.14
C      -0.82       4.34      13.79
C      -0.85       6.03      12.21
C       0.59       4.37      13.79
