20

C      -1.88       7.11       8.75
C      -1.88       5.25       9.97
C       6.71       6.38       9.66
C       5.50       6.49       9.83
C       4.16       6.55       9.91
C       2.92       6.54       9.90
C       1.58       6.48       9.82
H      -1.64       8.01       8.20
H      -1.64       4.40      10.59
C       0.36       6.40       9.69
H       8.61       7.79       7.87
H       8.61       4.17      10.26
C      -1.02       6.27       9.50
N      -3.13       5.48       9.54
N      -3.13       6.63       8.79
N       9.95       6.16       8.09
N       9.95       5.02       8.84
C       8.82       6.84       8.35
C       8.82       4.99       9.57
C       8.04       6.13       9.28
