42

N       1.82      12.71       5.69
H       4.39      14.35       9.67
C       7.16      14.33      13.67
C      -0.27      11.82       2.75
H      -0.74       9.75       2.28
N       5.87      11.46      12.05
N       1.88      10.49       6.05
C       1.10      12.16       4.66
C      -0.22      10.42       2.97
N       5.78      13.67      11.67
H       7.31      10.44      14.37
H       0.38      13.78       3.39
C       4.58      12.25      10.05
O       7.80      14.57      17.11
O      -0.93      13.59       1.27
H       3.24       9.79       8.08
O       8.87      15.79      15.60
C       5.39      12.48      11.24
C       0.41      12.71       3.58
H       3.04      14.08       7.63
O      -1.98      11.65       1.05
C       6.59      12.03      13.07
H       0.57       8.79       4.14
C       4.13      13.36       9.32
H       8.24      12.08      16.01
H       4.57      10.07      10.14
C       3.37      13.19       8.17
C       7.78      12.43      15.09
C       4.25      10.96       9.59
C       0.50       9.87       4.02
H       5.64      10.48      11.97
C       1.15      10.75       4.90
H       2.08      13.69       5.76
H       7.16      15.40      13.48
C       3.50      10.79       8.44
C       7.72      13.82      14.85
C       7.25      11.51      14.18
C       3.06      11.90       7.70
C      -1.09      12.38       1.64
C       8.17      14.78      15.89
C       2.27      11.69       6.49
C       6.53      13.43      12.80
