26

H     -13.65       6.35      13.97
H     -14.88      -0.86      17.49
H     -17.07       0.39      14.00
H     -15.84       2.50      14.00
H     -11.53       5.15      17.50
H     -12.72       3.02      17.49
O     -16.51      -2.52      16.67
O     -12.05       8.04      14.81
O     -17.65      -1.86      14.81
O     -10.91       7.39      16.67
F     -14.98       4.25      13.71
F     -13.48       1.21      17.69
C     -16.80      -1.68      15.75
C     -11.78       7.21      15.74
C     -12.50       5.91      15.74
C     -16.07      -0.38      15.75
C     -13.44       5.62      14.75
C     -14.10       4.41      14.75
C     -15.10      -0.12      16.72
C     -14.41       1.08      16.70
C     -16.32       0.59      14.77
C     -15.62       1.78      14.77
C     -12.26       4.94      16.72
C     -12.94       3.73      16.71
C     -13.90       3.40      15.72
C     -14.62       2.10      15.74
