22

C      -3.09      -0.38       9.98
H      -3.10      -3.05      11.90
H      -3.19       0.63       9.62
C      -1.26       1.99      20.34
H      -1.35       0.98      20.72
N      -2.62      -2.53       9.90
N      -2.64      -1.37       9.19
N      -0.70       2.96      21.08
H      -1.43       4.66      18.43
N      -0.72       4.13      20.35
H      -3.08      -0.53      15.95
H      -3.53       2.23      14.66
C      -1.30       3.87      19.17
C      -1.67       2.51      19.09
C      -3.05      -2.27      11.15
C      -3.61      -0.18      12.45
C      -3.47       1.14      14.71
C      -3.12       0.56      15.90
C      -3.35      -0.90      11.27
C      -2.73       1.27      17.04
C      -3.63       0.43      13.52
C      -2.27       1.84      18.02
