39

H       4.66      10.42       5.70
H       5.33       8.85       9.64
H       6.78      12.77       8.61
H       5.08      14.57       3.33
H       4.42      12.31       4.54
H       2.17       5.64       8.05
H       3.60       7.51       9.27
H       8.77      12.38      12.90
H       8.02      12.71      10.38
C       5.77      11.70       7.04
C       5.07      10.53       6.70
C       4.87       9.51       7.64
C       5.43       9.66       8.92
C       6.12      10.82       9.29
C       6.27      11.84       8.34
C       5.92      12.78       6.06
C       6.54      14.89       4.89
C       5.55      14.19       4.23
C       5.21      12.98       4.88
C       7.15      16.17       4.50
C       4.09       8.32       7.31
C       2.73       6.58       6.18
C       2.73       6.44       7.55
C       3.51       7.42       8.20
C       2.04       5.74       5.20
C       6.70      10.99      10.63
C       7.42      10.69      12.99
C       8.03      11.77      12.38
C       7.62      11.95      11.05
C       7.72      10.13      14.32
S       7.06      14.06       6.31
S       3.69       7.92       5.68
S       6.33       9.90      11.92
O       6.63      16.80       3.51
O       8.21      16.57       5.09
O       1.08       5.00       5.59
O       2.39       5.78       3.95
O       8.64      10.66      15.02
O       7.09       9.07      14.71
