19

C      21.93      10.52      13.71
H      23.15       5.88      11.20
H      20.49       9.19      11.89
H      24.84       6.94      12.74
H      22.63      11.58      12.26
C      24.65       9.25      14.06
O      24.41      10.43      14.46
O      25.69       8.56      14.31
C      20.75       6.88      10.49
O      20.95       5.67      10.17
O      19.80       7.63      10.08
C      23.60       8.63      13.18
C      21.73       7.49      11.44
C      22.37       9.28      12.96
C      22.95       6.83      11.69
C      21.45       8.70      12.08
C      23.88       7.41      12.55
O      22.09      11.71      13.06
O      21.35      10.47      14.77
