36

N      13.51      12.46      10.66
H      14.74      12.12       2.64
O      14.38      13.16      10.13
O      12.64      12.87      11.45
H      13.36      15.74       4.56
H      14.94       6.09      11.45
H      13.09       8.81      14.27
H      15.18      10.14       6.99
H      15.45      11.43       4.92
H      12.42      14.18       6.27
H      12.14      12.89       8.33
H      13.58      10.60      12.46
H      13.57       7.22       9.78
H      13.45       8.76       7.86
C      14.39      13.12       2.90
C      13.67      14.95       3.88
C      14.05      13.63       4.16
C      14.49       6.60      12.31
C      13.57       7.98      13.75
C      13.88       7.85      12.38
C      14.56      11.01       6.83
C      14.71      11.75       5.66
C      13.95      12.91       5.43
C      13.04      13.30       6.43
C      12.88      12.56       7.60
C      13.64      11.40       7.82
C      13.51      11.01      10.36
C      13.56      10.16      11.46
C      13.66       8.78      11.27
C      13.59       8.29       9.95
C      13.52       9.16       8.87
C      13.54      10.56       9.03
N      14.20      14.05       1.95
N      13.75      15.20       2.55
N      14.51       6.03      13.53
N      13.94       6.88      14.43
