40

H      12.19       9.05      21.82
H      11.74      11.47      20.42
H       7.80      10.69      20.39
C       9.09       8.88      26.27
C      10.56       7.36      19.83
C      11.17       6.31      20.77
C      10.12      12.78      23.42
C       6.95       8.63      22.63
H      12.16       6.62      21.12
H      10.55       6.16      21.67
H      11.28       5.34      20.27
H       9.64       6.97      19.36
N       9.26      12.21      22.38
N       8.01       8.06      21.78
H      11.26       7.55      18.99
H       8.87      12.91      21.75
H       9.60      13.62      23.90
H      11.09      13.14      23.05
H      10.30      12.02      24.19
H       8.41       7.24      22.24
H       6.22       7.84      22.86
H       6.45       9.43      22.08
H       7.33       9.05      23.58
O      11.54       9.55      15.42
O      10.23      11.38      15.09
O       8.19       9.70      26.59
O       9.41       7.81      26.91
C      10.67      10.39      15.79
C      10.26       8.66      20.51
C      11.22       9.42      21.49
C       9.75       9.16      25.03
C      10.19      10.26      17.13
C       9.03       8.97      21.44
C      10.04       9.72      22.48
C       8.78      10.32      20.72
C       9.98      10.03      19.75
C       9.71      11.07      21.71
C      10.97      10.77      20.75
C       9.96       9.45      23.86
C      10.03      10.18      18.34
