16

C       0.00       4.53       6.32
C       0.00       3.59       5.28
O       0.00       3.13      10.31
H      -0.00       4.82       8.47
O       0.00       1.00       9.63
C       0.00       2.22       5.58
H      -0.00       5.59       6.07
C       0.00       1.79       6.90
H      -0.00       1.51       4.76
O       0.00       5.30       3.62
H      -0.00       0.73       7.12
C       0.00       4.03       3.84
O       0.00       3.18       2.91
C       0.00       2.26       9.37
C       0.00       2.73       7.95
C       0.00       4.10       7.65
