14

O       2.57       7.07       5.77
O       0.84      14.24       5.56
H       1.84       9.27       5.68
H       3.71      11.74       6.15
O       4.75       6.80       6.34
C       1.87      13.52       5.72
C       3.85       9.00       6.15
C       2.77      11.22       5.93
C       2.77       9.80       5.91
C       3.72       7.50       6.09
C       1.71      12.03       5.69
Cl       5.41       9.61       6.55
Cl       0.14      11.41       5.35
O       3.06      13.93       5.90
