22

H      15.58      12.69      14.90
F      13.45      16.78      12.97
F      13.29       9.93      17.99
H      14.62      11.92      17.06
F      16.64      13.24      12.78
C      14.37      15.88      12.64
F       9.80      13.17      17.65
C      12.16      10.65      18.05
F      12.00      13.60      15.91
C      15.81      14.27      12.54
F      13.75      15.41      15.40
C      10.59      12.11      17.89
C      11.93      11.93      17.52
C      14.97      14.91      13.47
C      14.09      12.67      16.46
C      14.81      13.30      15.38
C      12.76      12.75      16.67
C      14.56      14.50      14.80
N      14.80      15.80      11.38
N      11.10      10.13      18.65
N      15.72      14.78      11.32
N      10.08      11.07      18.55
