48

C       9.77      16.17       9.56
C      10.63      15.86      10.71
C      10.12      14.98      11.70
C      10.89      14.58      12.77
C      12.24      15.07      12.91
C      12.71      16.01      11.93
C      11.93      16.39      10.85
C      12.94      13.78      14.82
C      11.66      12.23      15.94
C      13.90      12.42      16.38
C      15.18      11.08      17.90
C      14.58       9.79      17.65
C      14.88       8.72      18.46
C      15.76       8.87      19.55
C      16.38      10.11      19.80
C      16.11      11.19      18.98
C      10.05      10.73      16.93
C      10.77      10.30      18.10
C      10.25       9.31      18.91
C       9.01       8.71      18.61
H       9.11      14.61      11.58
H      10.50      13.90      13.52
H      13.73      16.37      12.04
H      12.34      17.05      10.09
H      13.90       9.68      16.81
H      14.42       7.75      18.28
C      16.11       7.71      20.41
H      16.58      12.16      19.13
H      17.08      10.20      20.63
C       8.78      10.12      16.67
H      11.73      10.76      18.33
H       8.23      10.47      15.79
H      10.80       8.97      19.79
H       7.31       8.67      17.29
N      13.15      14.72      13.83
N      14.06      13.40      15.47
N      14.98      12.20      17.19
N      12.74      11.73      16.57
N      11.71      13.30      15.11
N      10.42      11.65      16.01
O      10.22      16.75       8.49
O       8.54      15.84       9.60
O       9.23       7.18      20.42
O       7.36       7.11      19.18
O      15.61       6.54      20.16
O      16.95       7.85      21.35
C       8.27       9.14      17.49
C       8.49       7.60      19.46
