16

C      15.41       9.99      28.49
C      16.81      10.16      28.49
O      17.22       6.50      30.91
O      14.93       6.46      30.83
C      16.12      11.99      27.22
F      18.48      11.66      27.62
S      14.60      11.23      27.61
S      17.62       8.92      29.37
C      15.00       8.85      29.22
H      13.98       8.51      29.37
C      16.12      13.21      26.41
C      16.08       6.95      30.55
C      17.20      11.30      27.76
O      17.25      13.74      26.15
O      14.97      13.63      26.04
C      16.09       8.18      29.74
