16

H       0.39       9.48      13.66
H       1.23      11.06      11.92
H       1.00      13.50      12.25
C      -0.01      13.31      14.16
C      -0.50      12.41      15.14
C      -0.33      11.04      14.96
C       0.28      10.56      13.80
C       0.75      11.44      12.83
C       0.62      12.81      13.01
H      -2.23      14.58      15.32
N       0.63      15.67      14.05
N      -2.26      16.02      13.87
C      -0.25      14.75      14.29
C      -1.66      15.13      14.57
H      -0.95      12.80      16.05
H      -0.68      10.35      15.73
