70

H       5.77      17.58       8.34
H       0.92      19.68      13.28
H       7.08      20.12       8.09
H       8.56      19.91       6.13
H       7.63      19.36       3.88
H       5.18      18.96       3.64
H       3.69      19.14       5.62
H       3.00      18.12      16.00
H       1.52      18.30      17.97
H      -0.94      17.89      17.73
H      -1.87      17.34      15.48
H      -0.38      17.13      13.52
H       4.39      14.35       9.16
H       5.82      12.33       9.00
H       8.18      12.40       9.82
H       9.10      14.52      10.74
H       7.66      16.55      10.88
H      -0.97      20.71      10.73
H      -2.40      22.73      10.88
H      -1.48      24.85      11.79
H       0.87      24.93      12.61
H       2.31      22.91      12.46
C       3.09      15.21      14.49
C       3.60      22.04       7.12
C       2.67      21.18       9.27
C       4.02      16.07      12.35
C       3.55      21.00       8.20
C       3.14      16.25      13.42
C       4.37      19.86       8.15
C       2.32      17.40      13.47
C       4.29      18.91       9.20
C       2.41      18.35      12.42
C       3.38      19.11      10.29
C       3.31      18.14      11.33
C       2.55      20.28      10.34
C       4.15      16.97      11.28
C       5.09      17.73       9.18
C       1.60      19.53      12.44
C       5.05      16.78      10.17
C       1.65      20.48      11.45
C       5.28      19.65       6.99
C       6.66      19.84       7.12
C       7.50      19.72       6.01
C       6.97      19.41       4.75
C       5.60      19.19       4.62
C       4.76      19.31       5.73
C       1.41      17.61      14.63
C       1.93      17.95      15.89
C       1.09      18.06      17.00
C      -0.28      17.84      16.86
C      -0.81      17.54      15.60
C       0.03      17.42      14.49
C       5.92      15.58      10.04
C       5.42      14.39       9.50
C       6.23      13.25       9.42
C       7.55      13.29       9.87
C       8.07      14.48      10.38
C       7.26      15.62      10.47
C       0.77      21.68      11.57
C      -0.57      21.63      11.15
C      -1.37      22.77      11.23
C      -0.86      23.96      11.75
C       0.46      24.00      12.20
C       1.27      22.87      12.12
O       4.21      14.84      14.96
O       2.48      22.41       6.65
O       1.95      14.80      14.86
O       4.74      22.46       6.76
F       1.95      22.33       9.28
F       4.75      14.93      12.33
