23

N       1.16      -0.20       3.37
N      -7.74       0.20       3.37
H       0.56       0.02       1.31
H      -7.14      -0.02       1.31
N      -0.98      -0.17       2.84
N      -5.60       0.17       2.84
H       0.89      -0.46       5.49
N      -3.29      -0.00       2.84
H      -7.47       0.46       5.49
H      -1.82      -0.41       4.81
N      -2.08      -0.08       0.78
N      -4.50       0.08       0.78
H      -4.76       0.41       4.81
O      -3.29       0.00      -1.16
C       0.31      -0.10       2.36
C      -6.88       0.10       2.36
C       0.41      -0.35       4.53
C      -6.99       0.35       4.53
C      -0.92      -0.33       4.22
C      -5.66       0.33       4.22
C      -2.18      -0.08       2.09
C      -4.40       0.08       2.09
C      -3.29       0.00       0.10
