16

H      14.76       4.80       8.10
H      15.61       9.76       8.10
C      10.74       6.85       8.12
C      19.62       7.72       8.08
C      18.19       7.82       8.08
C      12.18       6.74       8.12
C      15.57       7.85       8.10
C      14.80       6.71       8.10
C      13.40       6.74       8.11
C      16.96       7.83       8.08
O      14.92       9.07       8.11
O      10.07       5.76       8.11
O      20.30       8.80       8.08
O      10.29       8.04       8.12
O      20.08       6.53       8.08
O      15.45       5.49       8.09
