28

C       4.67      11.56       0.57
C       4.55      10.64      -0.60
C       3.48       9.74      -0.68
C       3.41       8.83      -1.73
C       4.41       8.81      -2.72
C       5.46       9.75      -2.65
C       5.52      10.66      -1.60
C       4.41       7.82      -3.73
C       4.48       6.93      -4.57
C       4.58       5.89      -5.51
C       5.61       5.89      -6.48
C       5.72       4.85      -7.39
C       4.81       3.77      -7.36
C       3.79       3.76      -6.40
C       3.66       4.81      -5.49
C       4.94       2.65      -8.33
O       3.80      11.45       1.50
O       5.65      12.38       0.55
O       5.76       2.80      -9.29
O       4.20       1.62      -8.12
H       2.71       9.75       0.10
H       2.59       8.11      -1.79
H       6.24       9.74      -3.42
H       6.34      11.37      -1.54
H       6.32       6.71      -6.49
H       6.51       4.84      -8.14
H       3.09       2.93      -6.38
H       2.87       4.81      -4.75
