16

C      19.97       7.73      11.46
C      18.55       7.66      11.58
C      18.33       7.39      12.93
C      17.50       7.97      10.61
O      21.10       5.25      14.64
O      21.03       6.30      16.66
O      16.31       7.99      11.07
O      17.85       8.23       9.40
N      19.55       7.31      13.51
N      20.57       7.54      12.63
C      19.81       7.26      14.93
C      20.73       6.16      15.43
H      20.24       8.22      15.27
H      18.85       7.14      15.45
H      20.56       7.93      10.57
H      17.41       7.26      13.48
