44

C      -4.76       8.70       4.13
C      -0.45      13.57       7.18
C      -3.16      10.39       7.03
C      -5.80       7.84       3.79
C      -2.14      11.48       7.03
C      -6.34       7.53       6.02
C      -5.32       8.37       6.45
C      -1.59      12.07       5.88
C      -1.74      12.03       8.26
H      -4.14       9.13       3.34
H      -2.87      10.09       4.99
H      -6.00       7.59       2.75
H      -6.97       7.03       6.75
H      -5.18       8.54       7.50
H      -1.80      11.72       4.87
H      -2.11      11.60       9.18
N      -6.59       7.26       4.72
N      -3.47       9.86       5.79
N      -0.74      13.10       5.96
N      -0.90      13.07       8.35
C       4.50      19.35       5.48
H       2.87      18.24       4.99
C       0.45      14.76       7.18
C       3.16      17.95       7.03
C       4.76      19.64       4.13
H       1.80      16.61       4.87
N       0.74      15.24       5.96
N       0.90      15.26       8.35
C       1.59      16.26       5.88
C       2.14      16.85       7.03
C       1.74      16.30       8.25
N       3.47      18.47       5.79
H       2.11      16.74       9.18
C       5.32      19.97       6.45
C       6.34      20.81       6.02
H       4.14      19.20       3.34
H       6.00      20.74       2.75
O      -3.70      10.03       8.08
H       6.97      21.31       6.75
H       5.18      19.79       7.50
O       3.70      18.30       8.08
C       5.80      20.49       3.79
N       6.59      21.08       4.72
C      -4.50       8.98       5.48
