90

H       3.28      15.38      13.61
H       3.40      13.30      14.94
H       2.02      11.54      15.62
H       1.88       9.43      16.87
H       3.17       8.03      24.20
H       4.46       7.57      22.35
H       4.33       7.54      19.89
H       3.08       7.95      18.13
H       3.19       3.83      26.85
H       3.26       3.72      24.38
H       1.93       4.08      22.52
H       1.78       4.07      20.07
H       2.22      -1.59      15.19
H       3.79       0.06      15.67
H       3.93       2.20      16.88
H       2.82       3.66      18.15
H       2.24      -1.82      10.23
H       2.56       0.36      11.36
H       1.38       1.95      12.63
H       1.50       4.08      13.86
H       3.06      10.98      11.31
H       4.39       9.59      12.59
H       4.25       7.48      13.84
H       2.84       5.80      14.42
H      -0.20      -5.06      14.02
H       0.89      13.79       8.89
H       1.04       8.72      27.85
C       3.08      15.67      10.97
C       1.97      -4.24      11.32
C       3.15       5.97      28.42
C       3.26      14.41      13.11
C       3.32      13.24      13.85
C       2.54      10.66      15.24
C       2.46       9.47      15.94
C       3.23       7.16      26.15
C       3.25       7.10      24.76
C       3.85       6.81      21.85
C       3.77       6.80      20.46
C       3.17      14.37      11.71
C       3.26      11.98      13.23
C       3.22      10.73      14.01
C       3.05       8.29      15.45
C       2.97       7.02      16.19
C       3.00       7.00      17.59
C       3.22       4.75      26.26
C       3.25       4.69      24.87
C       2.48       4.83      21.95
C       2.40       4.82      20.56
C       2.13      -2.86      13.46
C       2.29      -1.63      14.10
C       3.27       0.94      15.28
C       3.35       2.14      15.96
C       3.21       5.98      26.92
C       3.26       5.87      24.09
C       3.21       5.83      22.62
C       3.04       5.80      19.79
C       2.96       5.80      18.31
C       2.86       4.60      17.60
C       2.26      -1.76      11.32
C       2.43      -0.54      11.96
C       1.96       2.00      13.55
C       2.04       3.21      14.24
C       3.13      13.11      11.08
C       3.17      11.94      11.83
C       3.82       9.55      13.52
C       3.74       8.36      14.23
C       2.12      -2.94      12.06
C       2.45      -0.45      13.36
C       2.57       0.84      14.06
C       2.73       3.30      15.47
C       2.81       4.58      16.20
C       2.86       5.80      15.51
S       1.73      -4.24      14.52
S       2.80      12.91       9.34
S       2.94       8.78      26.86
O       4.14       6.49      29.05
O       4.05      15.96      10.20
O       2.93      -5.06      11.45
O       2.13       5.40      28.92
O       0.93      -4.37      10.60
O       2.05      16.37      11.22
O       2.89      -5.10      14.74
O       1.09      -3.72      15.69
O       0.78      -5.07      13.62
O       3.98      13.14       8.52
O       2.15      11.65       9.16
O       1.88      14.12       9.04
O       4.14       9.35      27.45
O       2.29       9.57      25.86
O       2.03       8.44      28.07
