16

C      -4.43      -3.82       9.72
H      -5.27      -1.26      13.51
H      -3.73      -2.32      11.84
H      -8.60      -3.39      11.79
H      -7.10      -4.27       9.99
C      -7.93      -1.59      13.72
C      -5.65      -1.96      12.76
C      -4.80      -2.53      11.83
C      -5.33      -3.35      10.81
C      -6.70      -3.65      10.79
C      -7.53      -3.15      11.78
O      -3.33      -4.40      10.06
C      -7.02      -2.27      12.75
O      -4.82      -3.61       8.53
O      -8.99      -2.22      14.10
O      -7.59      -0.43      14.10
