28

C       9.44       2.95       2.87
C      11.99       3.44       3.68
H      11.30       6.91       1.74
H      10.96       0.18       6.05
H      10.76       1.98       1.14
H      10.66       4.40       5.40
N      13.11       6.71       0.65
H       9.51       5.32       2.97
N       9.43       0.74       7.41
H      11.91       1.07       3.56
N      13.90       5.63       0.27
H       8.42       2.74       2.54
N       8.39       1.64       7.38
H      13.02       3.65       3.98
C      12.06       6.23       1.34
C      10.09       0.81       6.23
C      13.28       4.54       0.73
C       8.44       2.22       6.17
F      13.80       3.33       0.50
F       7.53       3.16       5.85
C      12.12       4.84       1.45
C       9.50       1.76       5.39
C      10.05       4.37       3.11
C      11.38       2.02       3.44
C      10.74       2.52       2.09
C      10.70       3.88       4.44
C      11.35       3.96       2.33
C      10.08       2.44       4.22
