16

C      31.95      18.15      27.19
O      34.00      18.46      26.12
C      30.54      19.68      28.53
O      32.99      16.41      26.00
C      29.98      18.40      28.39
H      29.94      21.58      29.55
C      28.58      19.90      29.72
Cl      30.32      15.91      27.31
O      26.51      19.66      30.79
O      27.60      21.67      30.91
S      32.05      19.81      27.72
C      33.06      17.63      26.38
S      28.46      18.25      29.19
C      27.49      20.45      30.53
C      30.78      17.52      27.62
C      29.73      20.55      29.30
