30

H       5.45      11.74       9.64
H       7.88      18.71       6.48
H       8.72      14.13       5.29
H       4.60      16.32      10.82
C       6.56      20.27       8.10
C       6.77      10.19       8.01
C       6.00      12.34       8.92
C       7.33      18.11       7.20
C       6.76      11.69       7.94
C       6.57      18.76       8.17
C       7.45      12.43       6.98
C       5.88      18.02       9.13
C       7.43      13.85       7.01
C       5.90      16.61       9.11
C       6.68      14.51       8.03
C       6.65      15.94       8.08
C       5.95      13.74       9.00
C       7.38      16.71       7.12
C       8.15      14.64       6.06
C       5.18      15.81      10.05
C       8.14      16.01       6.12
C       5.19      14.45       9.99
I       8.44      11.41       5.41
I       4.89      19.04      10.70
I       9.32      17.07       4.73
I       4.01      13.38      11.38
O       7.70      20.83       8.09
O       5.63       9.62       8.02
O       5.43      20.84       8.03
O       7.90       9.62       8.08
