64

H      10.62       6.33       7.17
H       8.16       6.56       7.30
H       7.89       2.69       9.16
H      10.34       2.43       8.98
H      14.43       3.86      10.85
H      15.03       5.44       6.87
H      17.14       6.68       8.37
H      12.61       5.24       6.45
H       5.50       3.12       9.50
H      18.51       1.31      10.04
H      17.50       1.06       8.59
H      16.76       0.31      11.49
H      15.75       0.02      10.07
H      17.51      -1.52       9.11
H      17.03      -2.06      10.73
H      18.56      -1.20      10.50
H       8.25       7.26       9.87
H       6.87       8.01      10.73
H       8.49       9.30       8.45
H       7.13      10.06       9.30
H       8.43       9.92      11.49
H       9.31      10.86      10.27
H       9.79       9.19      10.62
H      10.24       3.89      11.82
H      10.41       5.07      10.50
H      12.17       4.97      13.01
H      12.35       6.13      11.68
H      10.00       6.99      12.11
H      11.02       7.16      13.55
H       9.84       5.85      13.45
C      17.18       3.59       9.48
C       5.99       6.33       9.01
C      16.38       4.68       9.08
C       6.51       5.03       8.81
C      10.02       5.52       7.60
C       8.64       5.66       7.68
C       7.86       4.70       8.35
C       8.48       3.49       8.72
C       9.86       3.34       8.61
C      10.67       4.40       8.16
C      12.68       4.08       9.65
C      14.05       4.17       9.87
C      14.92       4.67       8.89
C      14.37       5.08       7.66
C      13.01       4.96       7.43
C      12.12       4.45       8.39
C       5.53       4.20       9.39
C      17.31       5.66       8.72
C      17.47       1.22       9.68
C      16.79       0.08      10.41
C      17.51      -1.25      10.17
C       7.43       7.99       9.78
C       7.97       9.36       9.43
C       8.93       9.86      10.51
C      10.96       4.53      11.28
C      11.62       5.52      12.23
C      10.57       6.43      12.87
N       4.81       6.28       9.63
N       4.52       4.96       9.87
N      18.57       5.19       8.87
N      18.48       3.90       9.32
O      16.72       2.42       9.98
O       6.53       7.55       8.72
O      11.90       3.60      10.69
