32

N       4.88       3.14       2.43
H       6.68      -3.53      -2.27
H       5.17       2.17       2.53
H       3.70       3.05       4.17
H       2.76       2.76       2.67
H       3.33       4.40       3.09
H       4.87       3.31      -2.21
H       4.08       0.63       1.78
H       4.72      -1.66       1.72
H       5.00       0.81      -1.14
H       5.68      -1.22      -1.16
H       5.82      -3.59       2.78
H       7.19      -2.10       3.96
H       6.86      -1.27       2.40
H       8.39      -2.14       2.65
C       6.80      -3.72      -1.21
C       4.89       3.52      -1.15
C       6.80      -3.68       1.01
C       4.88       3.47       1.07
C       6.28      -2.99      -0.12
C       4.72       2.63      -0.07
C       4.49       0.28       0.83
C       4.88      -1.11       0.79
C       4.69       1.20      -0.17
C       5.56      -1.74      -0.20
C       7.31      -2.16       2.87
C       3.59       3.34       3.12
N       7.55      -4.74      -0.77
N       5.13       4.76      -0.70
N       7.56      -4.72       0.59
N       5.14       4.73       0.67
N       6.75      -3.44       2.41
