24

H       6.80      10.01       2.42
H      10.24      12.12       3.99
H       9.34      12.31      -4.55
C      10.86      11.58      -0.48
C      10.18      11.69      -1.67
C      10.52      11.25       0.87
C       9.39      10.67       1.38
H      12.28      13.80      -1.74
N       7.17      11.16       4.15
N       8.26      11.82       4.65
N      10.85      13.79      -4.62
N      11.78      14.27      -3.73
H      11.84      12.07      -0.54
H      11.22      11.69       1.59
H       8.75      10.11       0.69
C       7.51      10.58       3.00
N       8.90      11.04      -1.88
C       9.28      11.66       3.79
C       8.85      10.88       2.68
O       8.68       9.97      -1.28
O       8.08      11.56      -2.67
C      10.15      12.80      -4.03
C      11.65      13.56      -2.59
C      10.62      12.60      -2.72
