34

H       3.68       1.86      11.68
H       6.76       2.67      15.31
H       0.23       4.25      10.41
H       1.54       5.28      15.98
H       2.99       4.19      16.62
C       3.83       2.96      13.53
C       3.05       3.62      14.52
C      -1.82       5.31       9.26
C       5.19       2.64      13.83
C       5.72       2.89      15.09
C       3.59       3.78      15.81
C      -0.03       4.63      12.52
C       5.38       3.63      17.50
C      -1.49       5.42      10.73
C       4.89       3.41      16.10
C      -2.02       5.99      13.03
C      -2.32       6.08      11.67
C      -0.40       4.71      11.17
C      -0.80       5.39      13.49
C       1.16       3.88      12.90
C       1.74       4.13      14.17
C       1.05       5.00      15.05
C      -0.16       5.58      14.77
C       1.87       2.92      12.08
C       3.16       2.55      12.34
I      -0.69       6.99      16.27
I       6.45       1.84      12.34
I      -3.57       6.54      14.36
I      -3.85       7.31      10.91
I       0.96       1.71      10.57
O      -2.98       4.86       9.00
O      -0.90       5.60       8.44
O       4.47       3.66      18.39
O       6.62       3.80      17.72
