30

H      13.99      11.35       8.69
H      22.85       7.54       8.33
H      22.87      11.76       9.11
H      13.85       7.22       9.85
H      18.40      10.87       8.18
H      18.27       7.80       8.37
H      16.22       6.94       9.14
H      20.43      11.86       8.61
H      20.42       7.62       7.83
H      16.34      11.08       7.95
O      11.76       8.48      10.28
C      24.43       9.57       9.19
O      24.97      10.64       9.64
O      25.03       8.45       9.07
C      12.37       9.49       9.79
C      22.30       8.48       8.40
C      13.79       9.31       9.36
O      11.84      10.63       9.60
C      14.49      10.39       8.80
C      23.00       9.64       8.79
C      15.81      10.23       8.39
C      20.95       8.53       8.12
C      16.47       9.00       8.54
C      20.23       9.75       8.23
C      15.73       7.91       9.05
C      20.96      10.91       8.54
C      14.41       8.06       9.46
C      22.32      10.86       8.83
C      17.90       8.83       8.30
C      18.79       9.85       8.18
