13

O       6.05       2.18       6.52
O       4.12       2.83       5.59
O       7.56       0.89       8.90
O       7.11       2.10      10.72
C       4.78       2.12       6.40
C       4.05       1.10       7.28
C       5.24       1.32       9.44
C       6.74       1.44       9.71
H       3.19       1.59       7.76
H       3.67       0.32       6.60
H       4.75       0.93      10.34
H       4.84       2.33       9.30
N       4.94       0.47       8.26
