13

C       8.13       6.39      12.22
H       8.25       8.26      15.04
O       7.75       5.27      15.15
C       7.20       6.42      15.25
O       8.34       4.37      10.95
C       8.76       5.04      11.94
O       6.25       6.68      16.04
H       8.20       7.00      11.31
C       7.76       7.55      14.37
O       9.67       4.61      12.73
N       8.73       7.07      13.38
H       7.05       6.23      12.38
H       6.91       8.07      13.89
