19

H       2.84       4.60      13.12
H       6.73       3.23      14.34
H       3.00       3.14      11.09
H       7.86       1.58      13.26
H       6.91       0.41      12.30
H       7.80       1.68      11.47
C       4.94       1.56      10.32
C       4.73       4.90      15.04
C       4.94       2.37      11.58
C       4.79       4.01      13.84
C       6.01       2.36      12.50
C       3.72       3.98      12.94
C       5.91       3.20      13.61
C       3.81       3.17      11.81
C       7.22       1.46      12.37
O       6.06       1.24       9.81
O       3.80       1.28       9.82
O       5.82       5.12      15.66
O       3.58       5.37      15.34
