30

C      14.08       7.92       6.16
C      14.83       2.47      -0.70
C      15.06       6.91       6.11
C      14.74       3.39       0.47
H      13.01       4.44      -0.26
C      15.94       6.78       7.20
C      13.73       4.35       0.56
C      15.85       7.63       8.30
H      12.86       5.93       1.73
C      13.65       5.18       1.67
C      15.21       6.00       4.98
H      16.33       3.99       3.42
C      14.58       5.08       2.73
H      16.46       2.52       1.45
C      15.59       4.10       2.63
H      13.61       6.68       3.78
C      15.67       3.27       1.52
C      14.44       5.97       3.87
H      13.23       9.55       7.29
O      14.03       2.68      -1.68
H      13.38       8.05       5.33
O      15.70       1.54      -0.63
H      16.71       6.01       7.18
H      16.53       7.53       9.14
O      13.90      10.49       9.41
C      14.77       9.57       9.49
H      16.04       5.29       5.07
O      15.57       9.38      10.48
C      14.87       8.63       8.34
C      13.99       8.77       7.25
