75

H       5.80      11.20      10.14
H      -1.30      12.22       2.12
H      -4.10      17.37       5.48
H       2.08      10.63       5.15
H      -5.89      16.60       3.73
H       0.23      13.34       8.67
H      -2.96      14.02       2.21
H       0.17      10.99       8.93
H       5.11      11.21       8.36
H       3.65      11.95       6.55
H      -1.48      15.10       8.77
H       1.64      10.20      10.75
H      -4.56      15.98       8.96
H      -1.91      16.31       2.11
H      -1.41      18.17       7.01
H      -6.66      17.70       1.62
H      -4.43      17.53      10.91
H      -2.69      17.41       0.01
H       2.62      11.77       2.43
H       3.13      10.37       0.43
H      -1.21      19.65       9.00
H      -0.47       8.13       1.07
H      -1.02       9.56       3.04
C      -0.86      13.17       5.40
C      -3.34      15.75       4.29
C      -2.53      14.59       4.27
C      -1.84      14.21       5.46
C      -2.06      14.92       6.68
C      -0.60      12.49       4.17
C       0.97      11.92       6.46
C      -1.43      12.79       3.04
C      -3.86      16.35       3.05
C       1.81      11.54       7.61
C      -2.92      16.05       6.68
C       0.47      11.56       4.09
C      -3.53      16.44       5.49
C      -0.09      12.85       6.57
C       1.26      11.34       5.22
C       4.31      10.13      10.78
C       3.47      10.67       9.70
C      -5.19      16.77       2.91
C      -2.97      16.95       7.86
C       0.76      10.77       2.87
C      -0.37      13.56       7.79
C      -2.35      13.80       3.09
C       1.25      11.06       8.82
C       4.03      11.18       8.52
C       3.21      11.58       7.48
C      -1.31      14.55       7.84
C       2.07      10.61       9.84
C      -3.83      16.79       8.96
C      -2.96      16.59       1.99
C      -2.06      18.02       7.87
C      -4.73      17.61       0.69
C      -2.78      18.66      10.09
C      -5.14      18.28      -0.58
C       1.63       8.32      -0.58
C      -5.63      17.39       1.74
C      -2.50      19.51      11.30
C      -3.75      17.66      10.06
C      -3.39      17.22       0.83
C       1.35       9.18       0.62
C       1.94      10.98       2.13
C       2.22      10.20       1.01
C      -1.95      18.85       8.98
C       0.19       8.94       1.37
C      -0.11       9.74       2.47
O       3.92       9.32      11.62
O       5.61      10.53      10.83
O      -6.38      18.48      -0.80
O      -3.48      20.09      11.88
O       0.71       7.54      -0.98
O      -1.29      19.61      11.64
O      -4.19      18.62      -1.36
O       2.78       8.42      -1.13
