28

Cl       7.04      12.19      20.55
Cl       7.04       9.06      16.12
Cl       7.04      15.31      18.35
Cl       7.04      12.18      13.92
H       7.04       7.11      18.19
H       7.04       9.60      21.71
H       7.04      14.78      12.77
O       7.04      18.49      14.18
H       7.04      17.27      16.28
O       7.04      17.17      12.32
C       7.04      17.36      13.58
C       7.04       7.01      20.89
O       7.04       5.89      20.29
O       7.04       7.20      22.16
C       7.04       8.23      20.03
C       7.04       8.10      18.64
C       7.04       9.24      17.84
C       7.04      10.54      18.40
C       7.04      10.64      19.82
C       7.04       9.50      20.62
C       7.04      11.69      17.59
C       7.04      12.69      16.88
C       7.04      13.83      16.07
C       7.04      13.74      14.65
C       7.04      14.87      13.85
C       7.04      16.14      14.44
C       7.04      16.27      15.84
C       7.04      15.14      16.63
