17

N       0.20      10.13       5.61
H      -2.66       6.65       7.78
N      -1.36       4.34       6.30
H      -3.93       8.60       5.22
O      -5.20       6.46       7.82
O       1.78       7.64       7.01
O      -5.20       7.90       6.04
C      -4.60       7.18       6.97
O      -2.93       8.66       5.10
C      -3.15       7.22       6.99
C       1.26       6.65       6.41
C      -2.42       7.90       6.06
O       1.84       5.62       5.94
C      -0.24       6.68       6.27
C      -0.94       7.85       6.09
C      -0.27       9.09       5.86
C      -0.89       5.41       6.28
