19

H       9.21       1.94      13.02
H      10.51       2.31      11.86
H       7.23       1.27       8.52
H       9.04      -0.20      11.34
H      10.57       0.80      12.80
C       7.54      -1.90       9.41
C       7.73       0.71       9.31
C       8.50       1.40      10.22
C       7.43      -3.33       9.49
C       8.60       2.81      10.10
C       7.61      -0.68       9.34
C       8.68       4.02       9.98
C       8.77       5.45       9.88
C       9.90       1.50      12.28
N       9.22       0.79      11.22
O       6.67      -3.80      10.41
O       9.68       5.99      10.60
O       8.11      -4.00       8.63
O       7.94       6.02       9.10
