16

N       9.72       7.75      13.48
N      10.86       8.43      13.25
C       8.62       6.88      15.52
C       8.93       8.10      14.64
C       9.42       6.85      12.49
C      10.43       6.96      11.55
H       9.52       8.83      15.21
H       7.98       8.54      14.33
H       8.54       6.23      12.54
C      11.30       7.96      12.07
C      12.50       8.50      11.39
H      10.54       6.42      10.62
O       7.81       6.03      15.02
O       9.16       6.84      16.66
O      13.27       9.28      12.03
O      12.62       8.11      10.18
