80

H      17.76      18.77      11.24
H      14.09      19.02      13.47
H      14.01      19.10       9.17
H       4.44      21.16      12.00
H       7.92      20.21       9.64
H       8.18      20.27      13.92
H       3.92      19.49      13.62
H       6.92      21.99      15.45
H       5.61      22.00      17.57
H       2.68      19.42      15.77
H       7.00      21.17       8.12
H       3.34      20.65      10.35
H       2.05      20.83       8.25
H       5.71      21.16       6.02
H      18.33      17.51      13.12
H      15.41      20.23      14.74
H      16.66      20.28      16.88
H      19.61      17.63      15.25
H      15.54      17.50       7.74
H      18.06      20.48       9.57
H      19.31      20.73       7.43
H      16.87      17.69       5.63
H      12.39      20.69       9.74
H      12.08      18.00      13.09
H       9.68      18.53      13.30
H       9.99      21.22       9.94
C      15.96      18.91      10.07
C      16.67      18.83      11.27
C      16.01      18.85      12.51
C      14.62      18.97      12.52
C      13.88      19.07      11.33
C      14.56      19.02      10.11
C       6.23      20.70      13.09
C       5.49      20.88      11.91
C       6.08      20.74      10.65
C       7.44      20.41      10.60
C       8.22      20.26      11.76
C       7.60      20.41      13.01
C       3.28      20.56      18.06
C       3.08      20.92       5.70
C      18.94      19.06      17.50
C      18.92      19.46       5.14
C       4.29      20.05      14.48
C       5.51      20.75      14.38
C       5.98      21.44      15.51
C       5.25      21.45      16.70
C       4.06      20.72      16.80
C       3.59      20.01      15.68
C       5.92      21.06       8.17
C       5.28      20.88       9.41
C       3.88      20.81       9.41
C       3.14      20.90       8.23
C       3.80      21.00       7.00
C       5.20      21.08       6.98
C      17.97      18.13      13.93
C      16.77      18.86      13.78
C      16.31      19.63      14.85
C      17.02      19.68      16.05
C      18.21      18.96      16.20
C      18.69      18.19      15.13
C      16.38      18.20       7.67
C      16.71      18.98       8.80
C      17.80      19.86       8.71
C      18.51      20.00       7.52
C      18.17      19.22       6.41
C      17.12      18.30       6.49
C      11.79      20.19      10.51
C      12.42      19.31      11.40
C      11.63      18.72      12.41
C      10.27      19.02      12.53
C       9.65      19.92      11.64
C      10.44      20.49      10.62
O       3.19      21.49      18.92
O       2.72      19.40      18.15
O       1.94      21.46       5.54
O      20.06      18.50      17.67
O      19.01      18.54       4.26
O      19.42      20.64       5.04
O       3.75      20.29       4.79
O      18.33      19.77      18.38
