40

Cl       1.41       9.98      28.00
Cl      -1.31      15.43      29.38
H      -2.32      14.64      26.67
H       2.37      10.67      30.68
H       1.62      16.53      24.36
O      -1.81      17.76      22.90
O       1.77       7.61      34.49
H      -1.62       8.93      33.03
O       0.46      17.88      22.84
O      -0.50       7.52      34.53
H       1.01      12.27      26.45
H      -0.92      13.13      30.93
H      -2.83      16.93      23.98
O      -2.92      16.28      24.74
O       2.92       9.04      32.63
H       2.82       8.41      33.40
O       2.19      14.82      26.30
H       2.83      15.33      25.74
O      -2.15      10.65      31.10
H      -2.80      10.14      31.64
C      -0.63      17.44      23.33
C       0.59       7.95      34.05
C      -1.64      15.95      25.10
C       1.65       9.40      32.27
C      -1.46      15.06      26.16
C       1.49      10.29      31.21
C      -0.18      14.67      26.57
C       0.23      10.72      30.80
C       0.95      15.20      25.90
C      -0.91      10.23      31.48
C       0.76      16.10      24.86
C      -0.75       9.33      32.52
C      -0.52      16.49      24.44
C       0.51       8.90      32.94
C       0.59      12.47      27.43
C      -0.50      12.93      29.94
C       0.67      11.48      28.42
C      -0.58      13.91      28.96
C       0.12      11.70      29.70
C      -0.04      13.69      27.67
