47

C       1.64      10.88      20.81
H      -2.06       7.22      17.66
C       2.53      12.07      21.04
C       3.34      12.59      20.02
H       0.18       8.84      20.94
H       0.62      10.53      16.97
C       4.15      13.69      20.27
H      -1.70       5.44      18.94
C       4.16      14.29      21.53
H      -3.18       6.36      19.34
C       3.36      13.77      22.56
H      -1.10       3.51      20.21
C       2.55      12.67      22.31
H      -1.63       1.90      22.05
C       4.98      15.49      21.81
O      -2.22       8.27      15.38
H      -4.60       4.61      23.57
O      -0.40       9.52      14.90
H      -4.04       6.24      21.76
O       1.35      10.79      19.41
H       2.15       9.95      21.14
O      -1.45       7.02      20.29
H       0.71      10.99      21.38
H       3.31      12.12      19.04
O      -0.02       2.37      24.48
H       4.80      14.08      19.48
O      -2.86       1.09      24.11
H       3.36      14.27      23.53
O       4.92      16.07      22.91
H       1.91      12.28      23.11
O       5.76      15.88      20.81
H       6.32      16.70      21.09
C      -1.14       8.89      15.72
C      -0.77       8.88      17.17
C      -1.34       7.94      18.04
C      -0.98       7.93      19.38
C      -0.08       8.88      19.88
C       0.48       9.82      19.01
C       0.15       9.82      17.65
C      -2.25       5.94      19.76
C      -2.54       4.98      20.87
C      -1.86       3.75      20.95
C      -2.16       2.85      21.97
C      -3.15       3.16      22.91
C      -3.81       4.40      22.85
C      -3.50       5.30      21.84
C      -3.59       2.15      23.91
