34

H      18.87      12.13      11.21
H      19.64       5.02      10.16
H      15.81       9.06      10.37
H      22.63       8.22       9.97
H      14.86       4.93       9.87
H      23.63      12.32      10.58
H      21.23      12.86      11.02
H      17.29       4.33      10.00
H      17.16      10.39      11.01
H      21.34       6.78      10.26
C      18.21      10.13      10.85
C      20.28       7.06      10.30
C      19.16      11.11      10.97
C      19.34       6.07      10.24
C      24.67       9.84      10.00
C      13.79       7.45       9.94
C      23.25      10.22      10.25
C      15.22       7.05      10.10
C      21.53      11.84      10.80
C      16.96       5.37      10.09
C      22.86      11.55      10.55
C      15.62       5.69      10.02
C      22.29       9.22      10.22
C      16.17       8.04      10.32
C      20.93       9.48      10.48
C      17.55       7.74      10.40
C      20.54      10.82      10.76
C      17.95       6.38      10.25
C      19.92       8.43      10.44
C      18.55       8.77      10.57
O      25.56      10.75       9.96
O      12.90       6.54       9.85
O      24.89       8.59       9.84
O      13.57       8.70       9.88
