17

C       2.57      11.99       4.07
C       1.16      12.40       3.74
C       3.60      12.18       3.21
O       5.11       9.81       7.55
H       4.59      11.76       3.42
C       2.71      11.27       5.33
H       1.79      10.96       5.83
C       3.88      10.98       5.93
H       4.85      11.26       5.50
O       2.86      10.05       7.85
O       4.63      13.10       1.34
O       2.39      13.37       1.57
H      -0.04      13.86       3.75
O       0.33      11.59       3.34
O       0.88      13.68       4.04
C       3.52      12.94       1.95
C       3.95      10.23       7.20
