25

H       5.08       5.89       1.34
H       6.29       2.80      -0.45
H       6.11       0.82      -1.93
H       4.63       0.89      -3.93
H       3.30       2.95      -4.42
H       3.48       4.93      -2.93
H       3.74       3.18       0.69
C       3.84       4.00       2.72
C       5.62       6.67      -2.70
C       5.35       6.43      -1.24
C       5.04       5.19      -0.72
C       4.12       4.02       1.27
C       4.78       5.06       0.70
C       4.92       4.01      -1.60
C       5.64       2.83      -1.32
C       5.54       1.72      -2.16
C       4.70       1.76      -3.28
C       3.96       2.92      -3.55
C       4.07       4.03      -2.73
C       5.37       7.60      -0.43
N       5.42       8.58       0.20
O       4.40       4.91       3.44
O       6.53       5.97      -3.24
O       4.91       7.58      -3.23
O       3.06       3.08       3.13
