16

O      -3.54       5.17      13.49
O      -5.79       5.17      13.49
C      -4.66      10.51       9.71
Cl      -7.42       9.27      10.58
Cl      -1.91       6.89      12.27
Cl      -7.42       6.89      12.27
C      -4.66       9.26      10.59
C      -4.66       6.89      12.26
C      -5.88       8.66      11.02
C      -3.45       7.50      11.84
C      -4.66       5.65      13.14
C      -5.88       7.50      11.84
C      -3.45       8.66      11.02
Cl      -1.91       9.27      10.58
O      -3.54      10.99       9.37
O      -5.79      10.99       9.37
