11

N       3.04       9.15       3.72
N       3.22       9.00       2.40
N       3.42      10.22       1.89
C       3.14      10.46       4.07
C       3.58      12.58       2.46
O       2.99      12.01       5.89
O       2.71       9.82       6.29
O       3.82      13.48       3.32
O       3.49      12.81       1.20
C       2.94      10.80       5.51
C       3.39      11.16       2.88
