13

H       3.99       2.15      10.51
O       7.05       2.48      10.37
H       4.63       0.99      11.71
H       3.17       3.52      12.35
C       4.86       1.91      11.15
H       3.86       2.38      13.56
O       5.68       4.87      13.69
C       6.07       1.67      10.26
O       5.97       0.69       9.49
C       4.08       3.26      12.92
O       3.58       4.82      14.58
O       5.15       2.97      12.03
C       4.48       4.42      13.80
