17

C      -0.03       7.01      10.47
H      -0.49       7.70       7.83
N       0.83       9.11      11.17
C       0.29       8.43      10.18
O      -1.19       4.59       7.85
H      -1.10       4.40      13.49
C      -0.16       4.32      12.91
C      -0.19       5.22      11.73
O       0.01       8.90       9.01
H       0.66       4.59      13.58
N       0.17       6.53      11.75
C      -0.85       5.75       8.26
H      -0.04       3.28      12.60
N      -0.60       4.85      10.50
C      -0.51       5.95       9.68
H      -1.03       6.67       6.44
N      -0.78       6.79       7.43
