74

C      -5.44       8.72      15.67
N      -0.87      21.20      18.57
H      -1.68      24.35      21.84
H       0.31      25.07      16.38
N      -1.47      11.30      18.83
H      -4.98      21.98      20.49
O       3.68      23.66      14.81
H      -3.00       7.79      16.29
O      -3.83      25.00      22.78
H      -1.81      15.28      16.60
O       3.42       8.80      22.13
H      -0.14      23.12      20.27
O      -5.54      23.65      22.28
H      -1.27      23.72      17.75
O       2.48      25.51      15.16
H      -2.10       9.43      20.63
O       1.80       7.38      22.69
H      -2.06      12.84      16.72
O      -5.24       7.48      15.35
O      -6.37       9.41      15.19
H       2.80      10.20      20.14
H       1.44      20.36      17.53
H      -3.46      20.75      18.90
H       2.97      21.72      16.10
H      -1.22       8.94      17.64
H      -0.22      15.29      20.62
H      -0.45       8.15      22.04
H       1.17      11.48      18.71
H      -1.05      19.65      20.71
H      -1.09      17.20      20.74
H      -5.72      11.01      17.07
H      -3.99      12.15      18.49
H      -0.47      12.87      20.74
H      -0.74      19.60      16.41
H      -0.79      17.15      16.43
C       1.73      23.47      16.17
C       2.68      24.26      15.33
C      -3.41      23.23      21.25
C      -0.89      19.80      18.56
C      -4.32      23.99      22.16
C      -2.05      23.55      21.19
C       0.54      24.04      16.64
C      -0.02      21.95      17.74
C      -1.72      21.87      19.50
C      -3.92      22.21      20.43
C       2.22       8.39      22.04
C      -3.20       8.75      16.78
C      -0.55      10.54      19.61
C      -1.51      14.76      17.51
C      -0.94      16.96      18.59
C      -1.20      22.88      20.32
C       1.26       9.11      21.16
C      -1.02      15.50      18.61
C      -0.34      23.28      17.40
C      -4.45       9.34      16.60
C      -1.03       9.58      20.52
C      -1.66      13.39      17.57
C       1.72      10.05      20.23
C       1.18      21.38      17.26
C      -1.30      12.68      18.74
C      -2.49      10.63      18.12
C      -3.08      21.53      19.56
C       2.04      22.14      16.48
C      -2.22       9.38      17.53
C      -0.63      14.77      19.76
C      -0.12       8.88      21.30
C       0.82      10.76      19.45
C      -0.99      19.09      19.77
C      -1.00      17.71      19.78
C      -4.73      10.57      17.22
C      -3.77      11.21      17.99
C      -0.76      13.40      19.83
C      -0.81      19.07      17.35
C      -0.85      17.68      17.37
