13

C       2.70      17.83      18.79
H       2.42      16.37      21.86
O       0.94      17.43      17.22
N       3.66      17.98      21.43
H       4.84      19.56      20.80
C       2.24      16.95      19.78
C       2.75      17.05      21.07
H       4.07      19.48      18.43
C       4.10      18.83      20.48
C       3.66      18.78      19.16
H       1.50      16.19      19.54
O       2.84      18.28      16.44
C       2.14      17.82      17.39
