16

O      27.70      11.15      31.57
O      28.94      11.93      29.83
O      23.08       8.27      27.19
F      23.89       8.78      29.63
F      28.12      11.41      27.38
C      27.95      11.31      30.33
C      25.05       9.50      27.65
C      26.97      10.70      29.37
C      24.93       9.43      29.05
C      27.09      10.77      27.97
H      25.74       9.93      30.97
C      26.15      10.19      27.13
C      25.86      10.01      29.89
C      24.07       8.88      26.69
H      26.28      10.26      26.05
O      24.33       9.03      25.44
