30

N       5.89      -0.53       8.34
N       6.02       3.68       8.48
H       5.32      -5.25       7.30
H       5.11      -2.74       7.42
N       8.59      -5.38      10.30
N       8.42      -2.67      10.61
H       4.39       1.07       7.02
N       4.29       3.73       6.92
N       7.78       3.65      10.02
H       7.64       1.00       9.85
H       8.67      -6.38      10.08
H       8.64      -5.19      11.30
H       8.44      -1.65      10.53
H       9.31      -3.13      10.77
H       4.05       4.68       7.21
H       3.57       3.22       6.43
H       8.01       4.61       9.77
H       8.50       3.12      10.49
C       5.94      -4.65       7.97
C       5.82      -3.29       8.04
C       6.66      -2.57       8.92
C       7.58      -3.28       9.72
C       7.63      -4.71       9.59
C       5.11       1.59       7.65
C       6.00       0.87       8.44
C       6.92       1.55       9.25
C       6.91       2.95       9.24
C       5.14       3.00       7.69
N       6.82      -5.35       8.74
N       6.73      -1.18       9.03
