48

H      10.80      10.42       0.71
H      12.96      10.59      -0.46
H      14.28      13.50       2.44
H      12.10      13.30       3.62
H      14.20      11.94      -1.77
H      18.42      12.75      -1.72
H      16.24      12.50       1.98
H      19.48      14.39      -0.38
H      21.67      14.59       0.79
H      20.46      11.61       3.63
H      18.27      11.39       2.47
H      15.39      10.32      -3.49
H      15.48      10.22      -5.97
H      17.33      14.10      -6.09
H      17.32      14.18      -3.60
C       9.97      11.81       2.86
C      11.32      11.85       2.24
C      11.57      11.08       1.09
C      12.79      11.19       0.43
C      13.79      12.05       0.91
C      13.53      12.80       2.08
C      12.31      12.70       2.73
C      15.07      12.20       0.19
C      15.11      12.12      -1.21
C      16.31      12.33      -1.90
C      17.48      12.62      -1.18
C      17.47      12.66       0.22
C      16.25      12.46       0.89
C      18.73      12.86       0.96
C      19.69      13.77       0.50
C      20.92      13.90       1.15
C      21.20      13.11       2.27
C      20.23      12.22       2.76
C      19.01      12.11       2.11
C      16.35      12.26      -3.38
C      15.82      11.15      -4.06
C      15.87      11.09      -5.45
C      16.41      12.15      -6.18
O       9.73      12.67       3.79
O       9.14      10.95       2.41
C      16.91      13.31      -4.12
C      22.57      13.16       2.86
C      16.92      13.27      -5.51
C      16.41      12.12      -7.67
O      22.83      12.31       3.79
O      23.38      14.02       2.38
O      16.20      10.99      -8.23
O      16.62      13.23      -8.27
