30

H       9.38       7.66      23.56
H       9.89       7.39      21.27
H       7.73       8.62      21.33
H       7.91      11.05      23.08
H      11.35      10.88      20.89
H      11.05       8.18      23.74
H      10.36      11.84      23.35
C       9.19      10.68      27.55
Cl       7.19      10.74      20.52
H       7.47       9.41      23.53
H       9.79      11.69      21.07
H      11.60      10.59      23.22
H      11.38       8.32      21.43
O       9.62      11.81      27.90
O       8.46       9.89      28.27
O       9.69       7.46      16.71
O      10.75       9.42      16.27
C      10.08       8.61      17.03
C      10.32       8.32      21.69
C       8.20       9.60      21.49
C       8.20      10.00      22.97
C       9.46      10.24      26.21
C       9.65       9.54      20.98
C      10.11       8.40      23.21
C       9.62       9.81      23.58
C      10.57      10.85      22.93
C      10.39      10.83      21.40
C       9.54      10.01      25.02
C       9.71       9.32      19.54
C       9.82       9.06      18.36
