70

H       4.18       8.97       1.23
H       4.76       2.20      -1.07
H       4.96       2.29       1.46
H       6.68       4.79      -4.78
H       2.81       5.66      -7.74
H       2.52       5.82      -5.26
H       7.17       5.85       7.57
H       1.81       9.21      -1.60
H       2.82       8.71      -3.00
H       3.76      11.02      -3.18
H       1.99      11.04      -3.33
H       2.75      11.55      -1.81
H       6.75       3.22      -8.77
H       7.03       2.49      -7.16
H       9.47       3.15      -7.31
H       2.89       5.70       7.76
H       9.00       2.09      -8.66
H       9.18       3.84      -8.92
H       8.44       4.16       5.81
H       7.50       3.75       4.36
H       9.09       4.56       4.20
H       7.29       6.25       3.85
H       8.15       6.61       5.34
H       2.79       5.70       5.25
C       4.45       4.20      -2.74
C       5.82       5.00      -5.42
C       4.96       5.22      -9.16
C       5.98       4.89      -6.81
C       4.88       5.15      -7.66
C       3.64       5.47      -7.07
C       3.48       5.57      -5.70
C       4.59       5.34      -4.88
C       6.19       5.84       5.65
C       6.21       5.82       7.05
C       4.26       8.01       0.72
C       5.04       5.76       7.81
C       3.80       5.73       7.16
C       3.75       5.73       5.77
C       4.93       5.77       5.03
C       4.09       7.99      -0.69
C       5.10       5.68       9.31
C       4.88       4.46       2.99
C       4.64       6.95       2.92
C       4.48       6.87       1.44
C       4.54       5.61       0.78
C       4.74       4.42       1.52
C       2.74       9.41      -2.16
C       4.25       6.77      -1.39
C       2.82      10.84      -2.64
C       7.38       3.26      -7.87
C       8.84       3.08      -8.21
C       7.48       5.88       4.87
C       8.17       4.50       4.80
C       4.43       5.57      -0.64
C       4.52       4.31      -1.27
C       4.70       3.14      -0.53
C       4.81       3.19       0.86
C       4.41       6.70      -2.86
N       4.82       5.73       3.59
N       4.46       5.42      -3.44
O       3.99       5.77       9.93
O       6.24       5.51       9.84
O       5.04       3.45       3.67
O       3.84       9.21      -1.22
O       7.24       4.56      -7.24
O       4.62       8.02       3.53
O       4.55       7.69      -3.58
O       4.43       3.12      -3.34
O       3.85       5.18      -9.79
O       6.11       5.35      -9.70
