29

S       9.53      14.32       4.48
H      11.39      18.83       3.98
H      10.26      16.98       5.26
H      10.94      14.30       1.95
H      12.05      16.16       0.68
H      10.96      14.49       6.99
H      12.15      12.72       8.30
H      11.60       9.92       5.08
H      10.37      11.69       3.76
O      12.38      19.87       2.03
O      12.52      18.51       0.21
O       8.86      13.58       3.42
O       8.79      15.01       5.51
O      12.75       9.02       7.02
O      12.58      10.35       8.86
C      12.27      18.75       1.44
C      11.77      17.60       2.26
C      11.30      17.83       3.56
C      10.69      16.80       4.27
C      10.56      15.55       3.68
C      11.07      15.29       2.40
C      11.68      16.32       1.69
C      10.62      13.17       5.30
C      11.13      13.49       6.56
C      11.79      12.51       7.30
C      11.94      11.22       6.76
C      11.47      10.93       5.47
C      10.81      11.91       4.74
C      12.47      10.11       7.61
