22

H       4.23       8.10       5.00
H       3.24      10.36       5.21
H       1.22      13.45       4.58
H       4.14      14.79       7.50
C       4.80       8.92       5.43
C       4.26      10.19       5.52
C       5.01      11.23       6.08
C       6.32      10.94       6.48
C       6.80       9.63       6.36
C       1.61      14.20       5.27
C       2.80      13.98       5.97
C       3.23      14.91       6.92
C       2.46      16.05       7.06
C       0.94      15.38       5.51
N       6.05       8.63       5.88
N       4.49      12.52       6.34
N       3.45      12.76       5.67
N       1.38      16.36       6.32
F       8.05       9.36       6.73
F       7.15      11.89       6.96
F      -0.23      15.57       4.91
F       2.76      16.92       8.03
