22

Cl       5.35       7.26      29.61
Cl       5.47      10.97      33.33
Cl      -4.48       7.71      29.41
Cl      -4.61      10.29      33.99
H       2.63       7.43      30.18
H       2.72      10.49      33.25
H      -1.74       7.84      29.95
H      -1.85       9.96      33.72
C       4.54       8.24      30.75
C       3.15       8.13      30.82
C       2.46       8.94      31.74
C       3.20       9.83      32.53
C       4.59       9.86      32.38
C       1.05       8.89      31.83
C      -0.17       8.88      31.87
C      -1.58       8.89      31.84
C      -2.27       8.32      30.76
C      -3.66       8.38      30.75
C      -3.72       9.52      32.75
C      -2.33       9.50      32.86
N       5.27       9.08      31.51
N      -4.40       8.97      31.72
