26

O       1.93      23.75      12.09
O       4.72      28.18      13.70
H       4.59      24.63      11.28
H       2.06      27.30      14.52
H       1.07      23.72      12.55
H       5.59      28.21      13.25
C       3.80      29.02       8.43
C       2.86      22.91      17.36
C       4.03      25.21      12.00
C       2.62      26.72      13.79
C       2.60      24.87      12.52
C       4.06      27.06      13.28
C       2.82      23.71      16.16
C       3.83      28.22       9.64
C       4.48      25.54      13.46
C       2.17      26.39      12.34
C       3.05      25.21      14.02
C       3.61      26.72      11.77
C       2.83      24.42      15.17
C       3.82      27.51      10.62
Br       0.60      27.04      11.46
Br       6.05      24.89      14.34
O       4.92      29.26       7.89
O       1.74      22.67      17.91
O       2.64      29.38       8.03
O       4.01      22.55      17.76
