11

H      -1.29       9.00       8.01
O      -1.42       8.59      11.32
H      -2.27       8.43      11.80
C      -3.26       8.87       9.82
C       0.56       8.79       9.19
C      -0.89       8.91       9.01
C      -1.77       8.82      10.04
O      -3.72       9.35       8.74
O       1.06       9.24      10.27
O      -3.93       8.44      10.82
O       1.21       8.24       8.22
