16

C      16.02      13.15      26.39
C      16.00       6.90      30.53
C      17.11      11.26      27.73
O      17.16      13.66      26.13
C      16.01      11.92      27.21
O      14.87      13.59      26.02
C      15.31       9.93      28.47
C      16.71      10.12      28.45
C      14.91       8.79      29.20
C      16.01       8.12      29.72
H      18.13      11.61      27.58
H      13.89       8.44      29.35
O      17.14       6.46      30.90
O      14.86       6.39      30.79
S      14.49      11.16      27.59
S      17.52       8.88      29.33
