14

O       3.54       8.06       7.91
H      -1.17       4.86       7.51
O      -3.35       8.04       7.09
O       3.60       5.80       8.21
O      -3.42       5.78       6.81
H      -0.85       7.85       6.83
H       1.03       7.89       8.05
H       1.34       4.86       7.58
C       2.99       6.91       8.04
C      -2.81       6.89       6.94
C      -0.62       5.80       7.38
C       0.80       5.81       7.64
C      -1.33       6.89       7.00
C       1.51       6.91       7.94
