22

H      -3.77      13.54       4.16
H      -3.19      12.67       5.59
H      -2.07      13.07       4.28
H      -2.70      10.65       4.15
H      -3.18      11.53       2.72
H      -5.42      12.32       5.47
H      -8.47       9.53       4.34
H      -6.92       8.54       2.63
C      -4.81      10.91       3.96
C      -5.71      11.48       4.85
C      -7.02      10.99       4.99
C      -7.45       9.91       4.22
C      -6.58       9.35       3.28
C      -4.39       9.27       2.10
C      -5.27       9.84       3.16
C      -7.93      11.66       5.96
C      -3.39      11.42       3.80
C      -3.09      12.75       4.50
O      -8.95      10.99       6.39
O      -7.66      12.86       6.29
O      -4.71       9.52       0.90
O      -3.36       8.58       2.47
