38

O       0.83       9.69       4.51
H       5.90       3.22       2.35
H       6.01       5.29       3.71
H       1.71       5.42       3.83
H       1.62       3.37       2.42
H       2.08       7.59       3.87
H       5.90       8.40       6.92
H       5.81       6.31       5.63
H       6.18      10.81       6.58
H       6.30      12.77       8.12
H       2.14      12.28       9.08
H       2.04      10.25       7.65
H       2.20      10.99       5.25
C       4.27      13.83       9.60
C       4.99       3.71       2.68
C       5.05       4.87       3.45
C       3.87       5.51       3.87
C       2.63       4.95       3.49
C       2.58       3.80       2.72
C       3.76       3.17       2.30
C       2.92       7.73       4.56
C       2.97       8.93       5.28
C       4.05       9.19       6.15
C       5.07       8.23       6.24
C       5.01       7.04       5.52
C       3.93       6.76       4.66
C       5.31      11.11       7.16
C       5.37      12.21       8.01
C       4.23      12.64       8.70
C       3.02      11.94       8.54
C       2.97      10.82       7.72
C       4.11      10.39       7.01
C       3.71       1.97       1.42
C       1.93       9.94       5.00
O       3.14      14.29       9.99
O       5.42      14.29       9.92
O       2.57       1.50       1.11
O       4.84       1.52       1.02
