23

C       3.44      -2.89       7.71
O       1.39       3.50      10.28
C       2.82       1.94       9.28
O       3.96      -3.96       7.26
H       5.31       1.91       6.23
C       4.89      -1.48       6.20
O       3.36       4.31       9.53
H       1.91       1.50       8.85
C       4.17       0.79       7.66
H       3.10       1.37      10.18
C       6.21      -0.08       4.56
H       5.16      -2.38       5.65
C       3.69      -0.45       8.06
H       6.24       0.96       4.21
C       4.05      -1.59       7.31
H       7.24      -0.40       4.77
C       5.35      -0.22       5.79
H       5.83      -0.71       3.74
C       2.53       3.37       9.71
H       3.02      -0.58       8.90
O       2.42      -2.81       8.47
C       4.98       0.91       6.52
O       3.88       1.95       8.33
