16

H      16.10       3.93       3.18
H      12.16       1.46       4.96
H      14.44       2.89       1.61
H      13.83       2.50       6.53
C      12.22       1.50       2.26
C      15.06       3.27       4.94
C      13.21       2.12       3.19
C      15.24       3.38       3.55
C      13.03       2.00       4.58
C      14.32       2.81       2.68
O      11.23       0.88       2.79
O      12.44       1.64       1.01
C      13.95       2.58       5.45
O      15.83       3.75       7.12
O      17.03       4.51       5.34
C      16.05       3.89       5.87
