27

O      23.25      25.17      19.57
O      25.51      25.07      19.80
O      24.86      21.98      14.32
O      25.75      15.94      12.74
O      23.47      15.97      12.76
H      26.66      23.99      17.98
H      26.85      22.74      15.81
H      22.56      22.48      15.60
H      22.38      23.74      17.75
H      22.61      20.53      14.20
H      22.53      18.11      13.58
H      26.81      17.99      13.40
H      26.91      20.42      14.02
C      24.41      24.78      19.22
C      24.51      23.94      17.99
C      25.77      23.64      17.46
C      25.88      22.95      16.26
C      24.72      22.54      15.59
C      23.45      22.79      16.13
C      23.36      23.50      17.33
C      24.77      20.61      14.14
C      23.53      19.97      14.04
C      23.48      18.62      13.70
C      24.66      17.91      13.45
C      25.90      18.55      13.59
C      25.96      19.90      13.93
C      24.62      16.50      12.95
