20

N       3.83       0.92      18.40
N      -3.30       0.94      18.53
C      -0.48       0.96      18.41
C      -1.21       2.11      18.73
C      -1.22      -0.20      18.15
H      -0.72       3.06      18.94
H      -0.74      -1.14      17.89
H       3.76       2.92      18.90
H       3.70      -1.07      17.84
H       1.29       3.06      18.89
H      -3.19       2.96      19.03
H       1.24      -1.14      17.83
C       1.01       0.96      18.38
C       3.15       2.05      18.66
C       3.12      -0.18      18.09
C       1.76       2.11      18.66
C      -2.60       2.07      18.78
C       1.73      -0.20      18.07
C      -2.61      -0.17      18.21
H      -3.21      -1.05      18.00
