26

C       4.20       1.20      11.13
C       3.09       1.24       4.00
C       5.26       1.13      10.21
C       5.05       1.11       8.84
C       2.03       1.15       4.92
C       2.23       1.11       6.29
C       4.38       1.28       4.56
C       4.60       1.25       5.92
C       2.90       1.24      10.57
C       2.68       1.23       9.21
C       3.76       1.16       8.30
C       3.53       1.17       6.83
H       5.94       1.04       8.21
H       1.35       1.04       6.92
H       5.22       1.34       3.87
H       5.63       1.29       6.27
H       2.06       1.30      11.26
H       1.66       1.28       8.86
O       5.47       1.24      13.18
O       3.20       1.25      13.24
O       1.81       1.30       1.95
O       4.08       1.31       1.89
C       4.31       1.23      12.62
C       2.97       1.29       2.52
F       6.54       1.08      10.65
F       0.74       1.10       4.49
