34

H       0.33       7.70       6.82
H       0.59      12.64       6.95
H       3.89      10.95      11.54
H       3.96      12.42      10.56
H       5.12      11.11      10.29
H       5.06       8.55      10.04
H       3.75       7.41      10.44
H       3.98       8.88      11.40
H      -2.52       9.09       5.51
H      -1.37       7.76       5.23
H      -1.39       9.18       4.16
H      -1.22      11.58       4.22
H      -1.15      12.87       5.45
H      -2.39      11.60       5.54
C       2.18       7.15       8.53
C       2.30      12.92       8.80
C       2.21       8.64       8.59
C       1.31       9.39       7.77
C       3.10       9.26       9.46
C       0.38       8.79       6.88
C      -0.49       9.53       6.10
C       2.29      11.43       8.73
C       3.14      10.68       9.54
C       1.36      10.82       7.83
C       0.51      11.56       6.97
C      -0.42      10.96       6.14
C       4.07      11.33      10.53
C       4.01       8.47      10.37
C      -1.49       8.85       5.21
C      -1.33      11.80       5.30
O       3.27       6.55       8.25
O       3.40      13.51       8.54
O       1.21      13.51       9.09
O       1.08       6.56       8.78
