26

C       4.66       8.54       5.03
H       2.15       7.01      -5.85
H       4.51       7.50       5.32
N       3.11       4.00      -5.23
H       4.21      11.76       2.30
N       2.82       5.00      -6.08
H       3.31       3.96      -1.86
N       5.26       9.42       5.86
H       2.90       6.34       0.56
H       2.55       9.12      -0.75
N       5.32      10.62       5.26
C       4.75      10.53       4.04
O       5.15      12.82       3.78
C       4.30       9.18       3.83
O       4.18       2.62      -3.13
C       2.94       4.43      -3.96
C       2.33       6.62      -2.88
C       2.58       8.02      -0.68
C       2.90       7.43       0.51
C       2.48       5.78      -3.99
C       3.29       8.11       1.67
C       2.38       7.29      -1.85
C       3.72       8.62       2.69
C       2.42       6.08      -5.36
C       4.68      11.75       3.30
C       3.48       3.63      -2.90
