33

O       5.71       2.06      10.35
O       4.15       3.69      10.31
H       9.00       2.94      15.76
H      10.66       1.56      16.90
H      12.22       5.52      19.52
H       7.45       2.35      12.03
H       4.44       5.39      12.14
H       7.04       7.61      15.02
H      13.34       3.31      19.80
H      10.51       6.92      18.49
H       8.61       3.40      13.93
H       5.51       6.41      14.13
H      12.53       1.34      18.50
C       7.14       4.97      14.18
C       9.33       3.82      16.31
C       5.17       3.17      10.79
C       8.79       5.08      16.13
C      10.36       3.68      17.27
C      11.01       2.42      17.47
C      11.88       4.64      18.97
C       9.21       6.18      16.93
C      10.81       4.81      18.05
C       7.03       3.23      12.50
C       5.86       3.80      11.97
C       5.34       4.96      12.56
C       7.70       6.94      15.56
C      12.50       3.42      19.12
C      10.19       6.07      17.88
C       7.67       3.82      13.59
C       5.96       5.53      13.67
C      12.04       2.30      18.37
N       8.49       7.31      16.54
N       7.82       5.60      15.25
