13

O       7.12       6.66       1.79
H       5.14       8.27       0.78
N       4.65       7.08      -0.88
C       6.17       6.42       0.99
H       6.33       6.24      -1.90
O       5.61       5.28       0.89
C       4.62       5.04      -2.31
O       5.02       4.37      -3.31
C       5.63       7.55       0.11
O       3.72       4.60      -1.52
H       6.49       8.06      -0.37
C       5.25       6.40      -2.05
H       5.16       7.01      -2.96
