22

O      12.78       4.69      13.79
O      13.93       5.21      11.91
H      18.66       3.61      12.33
H      20.55       2.05      13.52
O      14.51      -0.51      17.38
O      13.47       1.51      17.18
O      22.12      -1.31      16.86
O      21.37      -0.19      18.69
C      17.35       2.89      13.94
C      18.54       2.99      13.21
C      19.51       2.18      13.82
C      18.94       1.55      14.94
C      13.80       4.66      13.08
C      14.45       0.71      17.03
C      21.29      -0.54      17.47
C      16.64       1.54      15.80
C      15.62       1.22      16.39
C      19.57       0.73      15.89
C      20.26       0.06      16.64
C      16.09       3.45      13.73
C      15.01       3.96      13.48
N      17.61       2.00      15.01
