26

C       5.28       4.36      16.62
C       6.07       1.64      14.27
H       5.28       7.12      17.46
C       5.24       3.13      16.03
C       6.24       2.71      15.11
H       5.53      -0.43      12.29
N       2.27       6.07      17.88
N       7.38       1.77      10.85
H       4.33       2.55      16.17
N       3.20       7.03      17.90
N       6.63       0.65      10.84
H       7.09       3.35      14.91
N       1.99       3.81      17.38
C       2.85       4.93      17.47
C       7.41       2.23      12.11
N       8.11       3.45      12.37
O       0.75       3.99      17.67
O       2.43       2.71      17.05
O       8.60       3.62      13.51
O       8.18       4.28      11.44
C       4.39       6.51      17.52
C       6.18       0.41      12.08
C       4.24       5.14      17.21
F       6.45       5.08      16.51
C       6.63       1.41      12.97
F       5.06       0.75      14.56
