31

C       9.55       1.98       8.44
C       9.64       3.19      12.33
C       8.76       2.97       6.23
C       9.42       1.62       5.86
C      10.90       1.64       6.33
C      10.98       1.77       7.86
C       9.35       1.37       4.44
C       9.63       2.26       9.86
C       9.70       2.58      11.03
C       9.33       0.59       1.91
O      10.77       3.42      12.93
H       7.71       2.95       5.90
H       7.89       3.34       8.21
H       7.74       0.80       8.57
H       7.63       0.46       6.27
H       9.13      -0.47       6.33
O      10.46       0.34       1.41
H      11.38       0.84       8.31
H      11.42       2.49       5.87
H       9.46       4.10       7.96
H      11.40       0.72       5.99
O       8.18       0.35       1.37
O       8.50       3.50      12.76
O      11.86       2.85       8.16
H       9.22      -0.15       8.64
H      11.88       2.96       9.13
H       9.26       3.77       5.67
C       8.88       3.20       7.75
C       8.74       0.71       8.14
C       8.67       0.48       6.61
C       9.30       1.12       3.25
