16

H      -0.67      -0.74      17.42
H      -4.75      -0.01      18.70
C      -1.67      -0.77      17.86
C      -2.71       0.17      17.75
C      -3.75      -0.39      18.51
N      -3.35      -1.57      19.03
N      -2.06      -1.81      18.62
C      -2.71       2.44      16.43
C      -2.70       3.86      14.33
C      -2.71       3.66      15.72
C      -2.71       4.97      16.25
H      -2.70       3.12      13.53
C      -2.71       1.39      17.04
H      -2.71       5.29      17.29
N      -2.71       5.87      15.25
N      -2.70       5.18      14.06
