48

C       1.86       5.28       6.68
C       1.51       4.50       7.79
H      -1.04       2.18      11.45
H      -0.53       3.25       9.23
H       3.43       1.52       9.51
H       2.74       0.53      11.71
N       0.83       1.33      11.66
C       2.91       3.31       5.74
N       3.59      -1.62       6.55
N       3.59       6.48       1.87
N       0.83       9.43       6.98
H       5.46      -1.01       5.92
H       4.95       1.44       6.10
H       1.00       0.34       7.45
H       1.69      -2.07       7.21
H       5.46       5.63       2.08
H       4.95       4.56       4.30
H       1.00       6.29       4.02
H       1.69       7.28       1.81
H      -1.04       8.82       7.61
H      -0.53       6.37       7.43
H       3.43       7.48       6.08
H       2.74       9.88       6.32
H       1.00       4.98       8.62
H       3.43       2.83       4.91
C      -0.06       2.07      10.97
C       0.23       2.66       9.75
C       1.50       2.47       9.18
C       2.42       1.69       9.90
C       2.05       1.15      11.13
C       1.86       3.14       7.91
C       4.48      -0.66       6.25
C       4.19       0.70       6.35
C       2.92       1.10       6.80
C       2.00       0.08       7.11
C       2.37      -1.25       6.97
C       2.57       2.53       6.85
C       4.48       5.74       2.56
C       4.19       5.15       3.78
C       2.92       5.34       4.35
C       2.00       6.12       3.63
C       2.37       6.66       2.40
C       2.57       4.67       5.62
C      -0.06       8.47       7.28
C       0.23       7.11       7.17
C       1.50       6.71       6.73
C       2.42       7.73       6.41
C       2.05       9.06       6.56
