56

C       4.26       9.95       3.16
C       3.46       8.06      -3.89
H       4.63      10.64       2.41
H       3.85       7.37      -5.89
H       3.09       7.38       5.81
H       4.48       7.02      -1.25
H       4.26       6.99       1.23
C       2.94       8.03       3.75
C       4.06       8.12      -5.14
C       0.82      10.49       2.22
C      -0.28      11.54       2.25
C      -1.29      11.29       3.36
C       0.71      10.38      -2.10
C       0.35      11.20      -3.32
C      -0.98      10.74      -3.92
C       3.41       8.11       5.06
C       4.97       9.14      -5.47
Cl       6.27      11.48      -4.77
Cl       5.89      11.26       4.85
Cl       2.31       6.79      -3.58
Cl       1.81       6.77       3.34
O       5.34       8.03       7.25
O       1.72      10.82       1.14
O       1.98      10.81      -1.56
O       5.44       7.93      -7.41
O       4.65      10.19       7.51
O       6.09      10.10      -7.36
H       1.37      10.48       3.18
H       0.41       9.48       2.06
H       0.19      12.53       2.38
H      -0.78      11.55       1.27
H      -1.81      10.32       3.23
H      -2.06      12.07       3.38
H      -0.82      11.27       4.35
H      -0.06      10.48      -1.31
H       0.78       9.31      -2.37
H       0.31      12.27      -3.05
H       1.16      11.09      -4.06
H      -0.95       9.68      -4.19
H      -1.23      11.30      -4.83
H      -1.81      10.89      -3.21
H       4.85      10.81      -2.49
C       4.82       9.12       6.85
C       4.31       9.11       5.44
C       3.90       7.79      -0.74
C       3.77       7.77       0.64
C       3.11       8.80       1.32
C       3.37       8.86      -1.47
C       2.45       9.80       0.58
C       2.59       9.83      -0.83
C       5.57       9.06      -6.85
C       3.76       9.00      -2.89
C       3.37       8.93       2.77
C       5.21      10.14      -4.50
C       4.72      10.04       4.47
C       4.61      10.06      -3.24
