28

H      -3.01      -4.22      10.40
H      -4.29      -6.28       6.13
C      -2.57      -2.92       2.48
C      -2.94      -7.02       8.69
H      -2.90      -0.64       7.02
C      -3.21      -5.64       8.65
H      -1.30      -2.66       8.66
N      -2.51      -6.25      10.71
N      -2.14      -0.79       2.48
H      -2.61      -0.37       4.49
H      -3.00      -7.76       7.90
H      -2.89      -1.99       9.14
C      -2.93      -5.21       9.97
N      -2.14      -1.93       1.70
N      -2.51      -7.36       9.92
C      -2.86      -2.49       3.78
F      -4.23      -5.07       3.92
F      -0.99      -1.14       6.60
C      -2.86      -2.74       6.27
C      -3.19      -3.22       5.00
C      -3.76      -4.51       5.07
F      -2.61      -4.16       1.95
C      -3.87      -5.28       6.23
C      -3.42      -4.80       7.48
C      -2.56      -1.12       3.70
C      -2.97      -3.48       7.45
C      -2.31      -2.41       8.31
C      -2.28      -1.54       7.00
