19

O      -2.41      12.21       3.80
O       1.38      10.33       4.94
H       0.89      11.87       3.55
O       1.07      13.73       1.98
H      -3.39      11.54       5.54
H      -3.75      10.61       4.05
H      -1.91       9.93       5.04
H      -4.37      12.28       4.23
H       1.97       9.66       5.37
C       0.09       8.55       5.87
C      -1.16      11.69       3.98
C      -0.09      12.31       3.37
C      -1.02      10.47       4.75
C       0.13       9.86       5.15
C      -0.10      13.42       2.45
C      -3.53      11.61       4.45
O      -1.20      14.02       2.14
O      -1.03       7.98       6.05
O       1.25       8.12       6.22
