10

C      -0.37      10.62       6.10
C      -0.29       6.31      11.20
C      -0.28       7.25      10.10
C      -0.33       9.72       7.23
C      -0.29       8.05       9.18
C      -0.31       8.93       8.16
O       0.84       5.97      11.66
O      -1.51      11.07       5.77
O       0.76      10.86       5.55
O      -1.43       5.93      11.60
