16

C      12.98      14.94       8.47
C      13.53      15.30       7.24
C      13.27      16.56       6.69
C      12.48      17.47       7.39
C      11.10      18.09       9.39
C      13.24      13.58       9.03
H      11.73      15.55      10.11
H      14.15      14.58       6.71
H      13.70      16.84       5.73
H      12.26      18.44       6.97
O      10.33      17.68      10.31
O      11.17      19.34       9.10
O      12.51      13.18       9.99
O      14.17      12.89       8.51
C      11.93      17.12       8.63
C      12.16      15.84       9.16
