23

H       3.56       5.38      12.66
N       4.98      13.08      13.70
H       3.70       5.42      14.43
N       5.84      11.12      14.21
N       4.77       6.89      13.37
H       5.54       7.30      15.32
N       4.82       7.49      12.15
H       7.13       9.70      15.05
N       5.48       8.61      12.30
H       7.46      10.15      13.37
O       6.54       4.81      13.78
H       4.66      10.70      15.97
O       4.98       3.35      13.03
H       3.60      13.20      15.36
H       6.56      12.20      12.50
C       5.39       4.50      13.44
C       4.25       5.54      13.49
C       5.43       7.63      14.29
C       5.87       8.74      13.60
C       6.66       9.91      14.08
C       4.89      11.40      15.18
C       4.37      12.62      14.85
C       5.87      12.15      13.33
