16

C       1.82       1.89       1.89
C       2.58       3.18       1.86
C       3.01       3.70       0.63
C       3.66       4.93       0.59
C       3.88       5.65       1.77
C       3.46       5.12       3.00
C       2.81       3.89       3.05
C       4.56       6.99       1.74
O       1.53       1.37       0.77
O       1.53       1.41       3.04
O       4.82       7.49       0.59
O       4.82       7.52       2.86
H       2.83       3.13      -0.27
H       4.01       5.35      -0.35
H       3.65       5.69       3.91
H       2.46       3.48       3.99
