51

C       0.62      18.24       5.71
C       0.62      11.96       9.29
C       0.62      18.20      12.94
H       3.98      17.96       3.78
H       3.98      10.42      10.50
H       3.98      20.01      13.67
C       1.84      18.30       6.38
C       1.84      12.51       8.90
C       1.84      17.59      12.66
H      -0.31      17.96       3.78
H      -0.31      10.42      10.50
H      -0.31      20.01      13.67
C       1.84      17.25       8.51
C       1.84      14.88       8.74
C       1.84      16.27      10.69
H       3.98      18.32       6.27
H       3.98      12.41       8.94
H       3.98      17.67      12.73
C       1.84      17.41       9.90
C       1.84      16.00       7.91
C       1.84      14.98      10.13
H      -0.31      18.32       6.27
H      -0.31      12.41       8.94
H      -0.31      17.67      12.73
O       2.97      17.43       1.62
O       2.97       8.82      12.03
O       2.97      22.15      14.29
H       1.84      18.41      10.34
O       0.70      17.43       1.62
H       1.84      15.88       6.83
H       1.84      14.11      10.77
O       0.70       8.82      12.03
O       0.70      22.15      14.29
C       1.84      17.58       2.18
C       1.84       9.23      11.63
C       1.84      21.59      14.14
O       1.84      18.43       7.77
O       1.84      13.65       8.09
C       1.84      17.93       3.63
O       1.84      16.32      12.07
C       1.84      10.31      10.60
C       1.84      20.15      13.71
C       3.05      18.05       4.33
C       3.05      10.86      10.15
C       3.05      19.49      13.47
C       0.62      18.05       4.33
C       0.62      10.86      10.15
C       0.62      19.49      13.47
C       3.05      18.24       5.71
C       3.05      11.96       9.29
C       3.05      18.20      12.94
