48

N       0.65      -5.55      17.10
N      -0.93     -12.75      14.49
O      -5.48     -15.59      11.02
H       1.51     -12.12      16.44
O      -3.91     -17.16      10.83
H      -1.86     -10.95      16.39
O      -1.45     -16.70      11.80
H      -2.53      -8.56      16.30
O       5.26      -2.39      20.22
H      -1.86      -6.31      15.29
O       3.69      -0.81      20.27
H       0.94      -6.51      17.22
O       1.22      -1.35      19.35
H      -0.07      -3.11      18.05
H       4.63      -4.39      19.00
H       3.17      -5.96      17.74
H       1.53      -7.45      15.39
H       2.20      -9.83      15.48
H      -1.26     -11.78      14.49
H      -0.18     -15.07      13.30
H      -4.88     -13.73      12.45
H      -3.44     -12.29      13.87
C       0.11     -13.02      15.33
C       0.21     -10.56      15.92
C      -1.13     -10.19      16.13
C      -1.50      -8.85      16.10
C      -0.55      -7.84      15.85
C      -0.41      -5.34      16.25
C       1.45      -4.62      17.80
C       0.96      -3.40      18.24
C       1.78      -2.50      18.95
C       3.14      -2.87      19.22
C       3.59      -4.13      18.78
C       2.78      -5.00      18.09
C       4.08      -2.00      19.94
C       0.79      -8.21      15.64
C       1.16      -9.55      15.68
C      -1.71     -13.60      13.69
C      -1.21     -14.77      13.13
C      -2.01     -15.59      12.32
C      -3.37     -15.21      12.08
C      -3.84     -14.00      12.64
C      -3.04     -13.20      13.43
C      -4.31     -16.01      11.27
S       0.80     -14.50      15.64
S      -1.06      -3.88      15.79
N       0.64     -11.90      15.97
N      -0.99      -6.50      15.77
