16

O      17.22      13.81      26.10
O      14.94      13.68      26.02
O      17.21       6.60      30.90
O      14.94       6.46      30.80
S      14.59      11.31      27.58
S      17.57       8.97      29.35
C      16.10      13.27      26.38
C      16.05       7.01      30.53
C      17.20      11.36      27.74
C      14.95       8.92      29.18
C      16.12      12.05      27.20
C      16.03       8.23      29.72
C      15.38      10.06      28.46
C      16.77      10.22      28.46
Br      19.02      11.79      27.60
Br      13.13       8.49      29.33
