30

C       9.06      17.83       9.93
C      10.19      18.57       9.53
C      11.18      20.87       9.56
C      10.13      20.03       9.54
C      10.23      15.75       9.54
H      12.20      20.47       9.64
H       9.12      22.41       8.63
H       8.16      18.37      10.24
H       8.97      24.89       8.71
H      12.23      15.92       8.76
H       8.22      15.87      10.30
H       9.12      20.45       9.58
H      13.04      22.61      10.42
H      12.21      18.41       8.76
H      12.86      25.10      10.51
C      10.27      14.26       9.56
O       9.36      13.66      10.23
O       9.73      27.14       9.17
O      11.22      13.71       8.90
C      10.78      26.62       9.68
C      10.90      25.14       9.64
C       9.85      24.38       9.10
C       9.94      22.99       9.07
C      11.08      22.33       9.56
C      12.14      23.11      10.06
C      12.05      24.50      10.11
O      11.74      27.27      10.24
C      11.34      17.86       9.11
C      11.35      16.48       9.10
C       9.09      16.44       9.96
