19

H      13.50       7.93      13.60
H      11.80       6.87      12.10
H      14.45       7.22       7.76
H      15.97       6.61       8.47
H      14.55       5.55       8.27
H      16.37       7.76      10.42
C      16.02       8.66      12.93
C      15.03       7.94      12.08
C      13.75       7.66      12.58
C      12.81       7.07      11.74
C      13.12       6.75      10.41
C      12.00       6.25       9.55
C      14.43       6.96       9.91
C      14.88       6.56       8.53
C      15.36       7.56      10.77
O      17.06       9.11      12.34
O      15.72       8.80      14.16
O      11.01       5.70      10.15
O      12.09       6.45       8.29
