18

C      -1.02       1.22      11.03
C      -0.23       2.32      10.62
C      -5.50       0.58      10.75
C      -5.64       2.38       9.49
H      -5.21      -0.28      11.35
H      -2.89       2.57       9.57
C      -4.70       1.50      10.06
H      -2.77       0.00      11.26
N       0.96       1.28      12.17
N       0.93       2.34      11.31
N      -6.80       0.88      10.61
H      -0.45       3.09       9.89
C      -0.19       0.62      11.99
N      -6.89       2.01       9.82
C      -2.40       0.89      10.75
H      -5.47       3.27       8.89
F      -0.47      -0.48      12.72
C      -3.26       1.67      10.07
