32

H       6.19      13.78       3.57
H       7.48       7.70       2.04
H       6.94       6.32       0.05
H       7.39       9.79      -2.47
H       7.91      11.17      -0.48
H       4.10       4.54      -3.97
H       7.77      10.49       5.89
H       7.68       7.68      -5.68
H       6.83       8.99      -4.80
H       7.41       9.27      -6.48
C       5.18       6.42      -4.56
C       7.32      11.42       5.54
C       6.51      13.09       4.34
C       7.09      11.81       4.21
C       4.37       5.28      -4.72
C       7.15       7.38      -0.06
C       7.04       7.98      -1.34
C       7.40       9.34      -1.48
C       7.69      10.11      -0.36
C       7.64       9.55       0.93
C       7.45       8.15       1.05
C       6.48       7.30      -2.44
C       7.62      10.38       2.07
C       7.38      11.07       3.05
C       5.16       7.01      -5.85
C       5.86       6.87      -3.41
C       7.00       8.53      -5.78
N       6.42      13.42       5.65
N       3.91       5.18      -5.99
N       4.40       6.28      -6.67
N       6.93      12.38       6.39
O       5.75       8.11      -6.37
