23

O       7.89       2.31       1.69
C       5.24      -1.19       0.25
C       5.18       1.68       0.12
C       4.06      -0.49       0.05
C       6.39       0.98       0.35
C       4.03       0.91      -0.01
C       6.41      -0.42       0.41
C       2.57      -0.61      -0.20
C       2.54       0.97      -0.26
H       7.35      -0.95       0.59
H       2.30      -1.13      -1.13
H       2.00      -1.06       0.62
H       1.95       1.46       0.52
C       7.67       1.69       0.67
H       2.25       1.39      -1.23
H       8.32       1.06      -1.04
C       5.27      -2.68       0.27
C       5.12       3.16      -0.02
O       6.39      -3.26       0.49
O       4.15      -3.25       0.05
O       4.01       3.72       0.19
O       6.20       3.78      -0.34
O       8.67       1.53      -0.26
