12

C       7.41      -3.37       7.71
C      13.72       3.37       7.72
C       8.39      -2.32       7.71
C      12.74       2.32       7.71
C       9.23      -1.43       7.71
C      11.90       1.43       7.71
C      10.14      -0.45       7.71
C      10.99       0.45       7.71
O       7.71      -4.43       7.06
O       6.34      -3.14       8.37
O      14.79       3.14       8.37
O      13.42       4.43       7.06
