18

C       3.27       9.93       9.11
C       4.81      11.34      10.33
N       7.14       9.66      12.34
C       3.84       8.81       9.72
O       4.17      13.36       8.53
C       3.30       7.44       9.41
H       5.35       8.04      11.06
N       7.95       9.03      12.85
C       3.79      11.20       9.40
H       2.43       9.81       8.42
O       2.18       7.38       8.80
C       4.91       8.94      10.62
N       6.38      10.52      11.89
C       5.37      10.22      10.95
C       3.29      12.45       8.75
O       3.99       6.44       9.79
O       2.04      12.54       8.51
H       5.20      12.32      10.59
