24

O       3.97       1.31       0.09
O       2.56       1.00      -1.69
O       6.05       1.67      -1.51
O       6.88       3.04      -3.24
O       5.06       5.35      -3.71
O       4.12       3.78      -2.24
O       6.85       4.32      -6.55
O       7.51       5.55      -4.74
H       4.83       0.58      -2.80
H       8.01       1.98      -1.93
H       7.11       0.98      -3.15
H       5.73       2.21      -4.76
H       4.65       4.22      -5.41
H       3.64       5.74      -2.32
H       3.07       4.75      -3.74
H       3.59       2.39      -3.71
C       3.68       1.25      -1.14
C       4.80       1.48      -2.16
C       7.07       1.86      -2.47
C       5.66       2.99      -3.98
C       5.44       4.36      -4.65
C       3.90       4.94      -3.01
C       4.46       2.67      -3.07
C       6.72       4.80      -5.37
