24

H      15.54      13.04      13.85
H      11.20      13.17      16.11
H      14.07      15.41      14.43
H      12.67      10.79      15.52
N      13.61      14.39      17.43
N      13.14      11.81      12.53
O      10.51      13.49      12.89
O      16.23      12.71      17.07
O      11.49      15.55      13.10
O      15.25      10.65      16.86
H      13.12      15.28      17.49
H      14.59      14.53      17.68
H      13.62      10.92      12.46
H      12.15      11.67      12.28
C      13.77      14.39      14.68
C      12.97      11.82      15.28
C      14.57      13.08      14.34
C      12.18      13.12      15.62
C      14.28      12.50      15.78
C      12.46      13.71      14.18
C      13.49      13.81      16.14
C      13.26      12.39      13.82
C      11.41      14.30      13.32
C      15.33      11.90      16.64
