20

C       3.83      -1.30       9.83
H       3.84      -1.96       6.06
H       4.96      -3.10      10.08
H       5.42      -6.16       4.99
H       4.04      -4.24       5.75
H       6.83      -3.76       9.04
H       8.05      -5.76       8.15
H       2.69       0.01       7.05
H       3.81      -1.05      10.89
N       6.79      -6.03       6.54
N       3.22      -0.44       9.00
C       3.86      -1.81       7.14
C       4.54      -2.70       7.99
C       4.49      -2.43       9.36
C       5.70      -5.61       5.89
C       4.93      -4.53       6.31
C       5.31      -3.85       7.48
C       6.46      -4.29       8.16
C       7.16      -5.38       7.66
C       3.22      -0.71       7.68
