14

H       2.87       9.48       6.64
H       5.09      11.68       6.38
H       5.91       9.31       6.17
O       3.45       7.09       6.35
H       2.04      11.85       6.85
O       5.70       6.78       6.33
O       4.50      14.07       6.68
O       2.25      14.38       6.68
C       3.30      13.64       6.69
C       4.65       7.52       6.33
C       3.07      12.18       6.71
C       4.88       8.98       6.31
C       4.07      11.29       6.53
C       3.88       9.87       6.49
