18

H       3.25       7.54       6.44
C       2.32      13.35       7.62
C       2.03       6.76       3.96
C       1.75      11.78       5.65
C       2.72       8.30       5.88
C       2.33      12.05       6.88
C       2.10       8.05       4.66
C       2.54       9.66       6.24
C       1.85      10.41       5.28
S       3.01      10.64       7.59
S       1.34       9.45       3.96
N       1.09      12.77       4.84
O       1.35      13.51       8.42
O       3.29      14.14       7.43
O       1.05       6.59       3.16
O       2.96       5.92       4.20
O       0.48      12.34       3.84
O       1.17      13.96       5.19
