26

O       8.14       5.57      15.27
H      13.35       8.52       7.81
H      11.71       4.65       6.99
O      13.20       5.49       5.28
H       8.73       8.82      13.03
C      13.26       6.56       5.94
H      10.05       8.81      10.92
C       8.96       6.71      13.39
C       9.17       7.90      12.67
H      10.69       4.57      11.38
C      12.59       6.59       7.27
C       9.92       7.89      11.49
H       9.35       4.60      13.49
C      12.71       7.69       8.12
C      10.46       6.69      11.00
H      12.14       8.59      10.00
C      11.79       5.50       7.66
C       8.18       6.67      14.66
H      10.47       4.70       9.16
C      10.24       5.50      11.73
C       9.51       5.51      12.90
O       7.63       7.77      15.05
C      11.22       6.65       9.73
C      12.04       7.73       9.34
O      13.84       7.65       5.57
C      11.12       5.54       8.88
