36

H      13.66       5.53      14.20
H       9.77       6.14      11.15
H      13.90       5.21      11.74
H      12.33       6.29      16.09
H       4.54       7.87      14.86
H       4.10       7.41      17.28
H       8.15       6.14      17.76
H       8.17       6.98      11.92
H       9.50       7.71      17.68
H      11.13       7.33      17.75
H       6.01       7.66      12.89
C      11.56       6.08      14.09
C      10.44       6.27      13.23
C       5.83       6.26      19.05
C      12.81       5.68      13.53
C      12.95       5.50      12.17
C      10.60       6.04      11.85
C       7.71       6.92      15.79
C      11.99       5.52       9.84
C       6.11       6.71      17.65
C      11.83       5.68      11.32
C       5.34       7.52      15.51
C       5.09       7.25      16.84
C       7.39       6.58      17.13
C       6.62       7.30      14.94
C       9.04       6.76      15.24
C       9.17       6.67      13.82
C       8.05       6.99      13.01
C       6.84       7.37      13.54
C      10.24       6.71      16.05
C      11.44       6.34      15.47
N      10.22       7.04      17.41
O       4.66       6.45      19.52
O       6.79       5.69      19.68
O      10.95       5.34       9.14
O      13.19       5.61       9.39
