32

H       4.76       3.41       3.23
H       7.09       1.70      -0.34
H       6.75      11.06       1.90
H       5.95      10.56      -0.94
H       5.44       8.36      -1.23
H       5.29       5.57       3.57
C       6.71       7.80       3.96
C       5.46       6.97       0.45
C       5.67       6.87       1.86
C       5.46       5.73      -0.31
C       5.70       4.49       0.36
C       5.41       4.46       1.77
C       5.43       5.62       2.49
C       5.45       5.68      -1.73
C       6.59       3.58      -1.72
C       6.15       8.00       2.59
C       6.55       5.01      -3.87
C       6.27       3.42      -0.37
C       6.16       4.71      -2.44
C       6.24       9.24       1.96
C       5.92       9.35       0.58
C       5.57       8.24      -0.16
Cl       7.54       2.32      -2.45
Cl       4.38       6.74      -2.59
O       6.57       8.74       4.81
O       6.63       2.28       0.31
O       6.72      10.35       2.58
O       6.09      10.60       0.03
O       7.31       6.69       4.18
O       6.87       6.19      -4.14
O       6.56       4.04      -4.72
O       5.12       3.24       2.34
