10

H       1.96       6.70      10.67
H       1.59       6.80      13.73
C       1.81       4.85      11.85
C       1.85       6.33      11.69
C       1.73       7.18      12.71
C       1.74       8.66      12.54
O       1.93       4.37      13.03
O       1.65       4.17      10.78
O       1.38       9.34      13.56
O       2.11       9.13      11.42
