24

O       4.37       4.01      14.18
O       2.06       0.61      15.71
O       5.83       3.26      16.33
O       1.18      -0.83      14.21
O       7.23       5.01      16.07
H       0.44       1.60      13.35
H       1.89       0.95      12.53
H       4.93       5.77      12.18
H       1.82       4.29       9.59
H       3.69       5.89      10.05
H       1.09       2.73      11.37
H       6.30       4.55      13.59
H       5.38       5.81      14.48
C       2.60       3.35      12.77
C       3.72       4.18      12.99
C       1.51       1.36      13.47
C       4.09       5.10      12.01
C       1.62       0.31      14.57
C       6.25       4.29      15.72
C       2.35       4.27      10.55
C       3.39       5.16      10.80
C       1.94       3.38      11.54
C       5.59       4.74      14.41
O       2.25       2.54      13.82
