22

C       6.79       5.90       1.68
C       5.82       4.80      -0.23
C       6.08       4.84       1.16
H       8.98       9.91       1.01
C       8.19       9.02      -0.80
H       6.03       5.77      -2.12
C       7.45       8.01      -1.38
H       7.00       5.94       2.75
C       7.13       8.16      -2.85
H       5.25       3.97      -0.65
H       5.71       4.05       1.82
H       8.57       9.82      -1.44
O       7.66       9.17       3.48
O       8.94       7.32       3.48
O       7.73       9.10      -3.49
O       6.29       7.40      -3.42
C       8.22       8.17       2.90
C       7.98       8.06       1.41
C       6.98       6.92      -0.56
C       7.27       6.95       0.86
C       8.43       9.07       0.58
C       6.25       5.81      -1.06
