34

H      10.95      13.72      14.70
H       9.29       6.92      16.42
H       8.95       6.22      11.70
H      11.29      14.42      19.41
H      10.39      11.85      13.25
H       9.85       8.79      17.86
C      10.38      12.39      20.85
C       9.81       8.95      16.79
C      10.72      12.75      15.13
C       9.52       7.89      15.98
C       9.86       8.25      10.27
C      10.18      11.42      17.13
C      10.37      12.48      19.35
C       9.87       8.16      11.77
C      11.05      13.72      17.39
C      10.06       9.22      13.99
C       9.19       6.93      13.72
C      10.96      13.61      18.76
C       9.28       7.03      12.35
C       9.88      11.45      18.52
C      10.36       9.19      12.59
C      10.68      12.64      16.55
C       9.56       8.00      14.57
C      10.04      10.26      16.26
C      10.20      10.38      14.85
C      10.43      11.69      14.32
Cl      11.52      10.28      11.90
Cl       8.72      10.36      19.22
Cl      11.66      15.19      16.71
Cl       8.58       5.45      14.40
O      10.39      13.49      21.50
O       9.85       7.15       9.62
O      10.47      11.23      21.35
O       9.77       9.41       9.77
