16

Cl      12.42      14.01      17.27
Cl      11.06      13.23      23.33
C      10.86      13.03      19.34
C      12.68      14.09      21.25
C      12.02      13.73      18.92
C       9.86      12.39      18.43
O       8.78      11.97      18.99
C      11.51      13.43      21.67
C      12.89      14.24      19.87
C      10.63      12.92      20.72
O      10.15      12.30      17.20
O      13.72      14.30      23.37
O      14.56      15.47      21.61
H      13.79      14.77      19.55
H       9.72      12.41      21.04
C      13.73      14.66      22.15
