24

C       6.37       3.59       2.31
C       2.93       9.31      -2.32
C       5.37       5.68       1.61
C       3.91       7.21      -1.61
C       4.75       6.58       0.65
C       4.53       6.31      -0.65
C       5.63       6.15       2.91
C       3.66       6.74      -2.92
C       6.24       5.33       3.84
C       3.07       7.57      -3.85
N       6.61       4.06       3.56
N       2.70       8.84      -3.56
H       5.57       3.91       0.35
H       3.71       8.98      -0.35
H       6.67       2.56       2.14
H       2.63      10.34      -2.14
H       4.45       7.55       1.06
H       4.83       5.34      -1.06
H       5.36       7.17       3.21
H       3.93       5.73      -3.21
H       6.46       5.68       4.85
H       2.85       7.23      -4.86
C       5.76       4.35       1.33
C       3.53       8.54      -1.33
