16

O       0.83       5.22       7.00
C       1.97       3.80       4.91
H       2.54       4.61       5.37
O       1.59       0.42       1.54
C       2.51       3.09       3.85
H       3.50       3.33       3.46
C       1.78       2.06       3.25
O       3.51       1.63       1.67
C       0.50       1.74       3.74
H      -0.07       0.92       3.28
C      -0.04       2.45       4.80
H      -1.04       2.21       5.19
C       0.09       4.29       6.50
C       2.34       1.32       2.08
C       0.69       3.49       5.39
O      -1.09       4.02       6.89
