28

C       5.84      14.06       0.92
C       4.11      15.78       0.92
C       4.97      14.92       0.20
C       4.97      14.92      -1.21
C       4.97      14.92      -2.44
C       4.97      14.92      -3.85
C       5.84      14.06      -4.57
C       4.11      15.78      -4.57
C       5.83      14.07      -5.95
C       4.12      15.78      -5.95
C       4.97      14.92      -6.66
C       4.97      14.92      -8.15
H       6.49      13.41       2.86
H       3.46      16.44       2.86
O       5.78      14.12       5.08
O       4.17      15.73       5.08
H       6.50      13.40       0.37
H       3.45      16.45       0.37
O       5.78      14.12      -8.73
O       4.17      15.73      -8.73
H       6.50      13.40      -4.01
H       3.45      16.45      -4.01
H       6.49      13.40      -6.51
H       3.46      16.44      -6.51
C       4.97      14.92       4.50
C       4.97      14.92       3.01
C       5.83      14.07       2.30
C       4.12      15.78       2.30
