25

C      15.54       2.67       8.62
H      12.28      -0.49       7.60
C      16.60       1.91       8.12
H      14.60       0.15       8.26
C      17.93       2.20       8.46
H      13.30       4.27       8.18
C      17.40       5.09      10.85
C      19.01       1.39       7.81
H      11.03       3.44       7.52
H      19.22       3.44       9.66
N      11.57       1.44       7.54
H      15.02       4.36       9.87
O      20.23       1.71       7.97
H      16.42       1.09       7.43
O      18.62       0.42       7.09
C      12.55       0.55       7.74
O      18.33       4.92      11.70
C      13.84       0.92       8.10
O      16.65       6.12      10.81
C      14.16       2.28       8.27
C      13.12       3.20       8.08
C      11.85       2.75       7.71
C      18.20       3.24       9.36
C      17.14       4.01       9.85
C      15.82       3.75       9.46
