20

H      23.33       2.73      20.50
H      20.32       7.03      19.43
H      21.21       7.62      20.86
H      23.04       8.49      19.34
H      22.14       7.90      17.92
Br      25.68       2.98      18.95
C      25.25       6.15      17.82
C      21.09       3.97      21.36
O      26.26       5.45      17.49
O      25.00       7.35      17.43
O      21.24       2.78      21.78
O      20.11       4.75      21.61
C      22.14       4.52      20.46
C      24.23       5.54      18.72
C      22.10       5.81      19.94
C      24.27       4.23      19.27
C      23.11       6.29      19.10
C      23.26       3.74      20.11
C      21.31       7.11      19.89
C      22.46       7.65      18.94
