14

C       2.74       1.41      10.39
O       3.53       1.72      13.14
H       1.22       3.03       8.91
C       3.38       0.46      11.10
O       4.41      -0.33      13.05
H       2.64       0.32       8.50
C       3.78       0.63      12.52
H       2.49       2.36      10.86
C       2.33       1.23       9.02
H       3.61      -0.51      10.67
C       1.06       2.01       6.99
C       1.55       2.13       8.38
O       1.60       1.15       6.19
O       0.11       2.78       6.66
