28

O      18.14      28.41      12.06
O      17.27      27.61      10.12
H       7.18      24.21      14.84
H       8.86      25.64      18.54
H      15.01      26.71      10.31
H      16.70      28.14      14.01
O       5.74      23.94      16.78
O       6.61      24.73      18.73
C      17.22      27.86      11.37
C       6.66      24.49      17.48
C       7.90      24.89      16.76
C       8.01      24.67      15.38
C       9.17      25.04      14.71
C      10.26      25.64      15.40
C      10.11      25.84      16.80
C       8.96      25.48      17.47
C      11.43      26.01      14.72
C      12.45      26.34      14.13
C      13.62      26.71      13.45
C      13.76      26.50      12.05
C      14.92      26.87      11.38
C      15.98      27.46      12.09
C      15.87      27.68      13.47
C      14.71      27.31      14.14
Cl      11.41      26.57      17.67
Cl       9.29      24.76      13.02
Cl      14.59      27.58      15.83
Cl      12.47      25.78      11.17
