26

O      -7.29       3.09      14.48
O      -6.07       1.83      15.92
H      -6.07       4.89      16.96
H      -6.68       5.51      15.42
H      -5.09       7.22      15.50
H      -4.47       6.57      17.03
O      -2.76       8.08      14.71
O      -1.30       6.78      15.86
H      -4.19       6.41      13.31
H      -2.88       5.22      13.25
H      -5.74       4.66      13.24
H      -4.42       3.48      13.24
H      -1.95       4.29      15.44
H      -2.58       4.86      16.98
H      -3.53       2.57      15.45
H      -4.19       3.17      16.96
C      -6.26       2.86      15.20
C      -2.42       6.99      15.28
C      -5.77       5.18      15.94
C      -4.71       6.31      15.99
C      -3.42       5.85      15.26
C      -3.79       5.51      13.80
C      -4.83       4.36      13.77
C      -5.19       3.94      15.21
C      -3.92       3.47      15.94
C      -2.87       4.60      15.95
