28

O      27.42       8.31      12.09
O      27.89       9.37      10.16
C      27.65       9.36      11.41
O      27.42      20.63      18.83
C      27.65      20.64      17.59
O      27.89      21.69      16.91
C      27.65      19.31      16.86
C      27.40      18.09      17.55
C      27.40      16.86      16.86
C      27.65      16.78      15.47
C      27.90      17.99      14.79
C      27.91      19.23      15.45
C      27.65      15.54      14.79
C      27.65      14.46      14.20
C      27.65      13.22      13.52
C      27.40      12.01      14.21
C      27.40      10.77      13.54
C      27.65      10.69      12.14
C      27.90      11.92      11.45
C      27.90      13.14      12.13
Br      27.05      17.97      19.41
Br      28.26      20.74      14.35
Br      28.24      17.87      12.93
Br      27.07      15.23      17.76
Br      27.07      12.13      16.06
Br      28.24      14.77      11.24
Br      28.25      12.03       9.58
Br      27.05       9.26      14.64
