16

F      23.80       8.74      29.61
H      25.64       9.88      30.97
C      24.01       8.83      26.67
C      27.87      11.26      30.28
O      28.86      11.86      29.75
C      24.98       9.45      27.63
C      26.87      10.64      29.36
C      24.85       9.38      29.03
C      27.03      10.73      27.97
C      25.77       9.96      29.89
C      26.10      10.15      27.13
H      27.89      11.27      27.56
O      24.24       9.02      25.43
H      26.20      10.21      26.04
O      27.66      11.12      31.54
O      23.04       8.17      27.17
