10

H       3.10       0.75      24.11
O       3.27      -1.79      24.23
O       3.16      -1.56      26.49
H       3.26       0.83      27.18
O       2.90       3.18      24.87
O       3.38       3.36      27.08
C       3.20      -1.10      25.30
C       3.16       0.37      25.13
C       3.18       1.22      26.17
C       3.15       2.69      26.02
