15

C      12.61      24.81      12.87
C      13.11      24.79      10.52
H      13.04      26.75       9.60
N      14.17      22.57       8.00
C      12.92      24.10      11.72
N      14.17      23.72       7.34
N      12.48      26.15      12.88
C      12.92      26.18      10.52
H      12.49      27.90      11.76
H      13.04      23.02      11.76
C      13.53      24.09       9.31
N      13.77      24.70       8.13
C      12.61      26.82      11.71
H      12.49      24.31      13.83
N      13.77      22.76       9.25
