18

C       3.81       2.94       5.78
C       4.83       2.54       2.33
C       2.64       3.58       5.37
C       6.00       1.90       2.74
C       4.04       2.92       3.44
C       4.61       2.56       4.67
S       2.52       3.72       3.63
S       6.13       1.77       4.47
C       1.55       4.12       6.17
O       0.60       4.68       5.51
O       1.63       4.00       7.44
O       6.98       1.41       0.67
O       8.06       0.84       2.60
O       4.12       2.71       7.08
C       7.09       1.34       1.93
O       4.52       2.77       1.03
H       4.98       2.26       7.13
H       3.66       3.22       0.98
