23

H      14.35       9.66       7.18
H      14.08       7.81      11.05
H      16.59      10.10       6.16
H      16.57       7.81      11.25
H      18.80       8.37      10.29
H      18.73      10.46       5.43
C      12.60       8.78       9.01
C      20.57       9.10       8.44
C      14.09       8.75       9.10
C      19.08       9.18       8.33
C      17.07       9.70       7.06
C      18.45       9.66       7.15
C      18.30       8.73       9.38
C      16.89       8.71       9.31
C      16.27       9.22       8.12
C      14.85       9.25       8.06
C      14.71       8.21      10.26
C      16.08       8.21      10.36
O      11.96       8.09       9.87
O      21.10       9.78       9.38
O      12.09       9.49       8.07
O      21.16       8.35       7.61
O      19.28      10.12       6.16
