14

O       1.82       1.33      15.10
C      -0.37       3.76      11.57
C       0.72       4.41      11.10
C      -0.37       2.87      12.71
C       0.74       2.44      13.36
H      -1.32       3.94      11.06
H       1.70       4.31      11.57
H      -1.33       2.50      13.07
H       1.74       2.75      13.06
O      -0.43       1.06      14.87
C       0.70       1.54      14.53
O      -0.37       5.49       9.28
C       0.70       5.31       9.94
O       1.83       5.89       9.69
