20

H       4.85      11.35       8.04
H       3.40       9.40       7.52
H       7.68       6.25       6.73
H       7.56       6.21       8.52
C       4.18       6.73       7.35
C       7.60      11.41       8.20
C       6.39       7.85       7.61
C       5.01       7.96       7.49
C       4.48       9.26       7.61
C       5.30      10.36       7.89
C       6.70      10.25       7.97
C       7.21       8.97       7.77
C       8.46       8.14       7.74
C       7.53       6.86       7.63
I       9.68       8.42       5.95
I       9.68       8.24       9.53
O       4.56       5.75       8.05
O       3.18       6.73       6.54
O       8.70      11.38       7.56
O       7.23      12.33       9.01
