10

C       0.83       6.60       8.07
C      -1.54       7.56       8.06
C      -3.04       7.48       8.07
C      -0.67       6.52       8.08
O      -3.54       6.32       8.03
O       1.33       7.76       8.11
O      -3.66       8.59       8.11
O       1.44       5.49       8.03
F      -1.07       8.83       8.04
F      -1.14       5.25       8.10
