34

H       5.50      11.32       1.19
H       1.15      11.84      -1.21
O       4.43      15.02      -4.92
O       2.21       8.08       4.88
O       2.16      14.91      -5.09
O       4.48       8.14       4.98
H       5.97      14.50       0.29
H       4.66      14.71      -0.90
H       6.33      14.69      -2.77
H       6.70      15.97      -1.60
H       7.65      14.48      -1.60
H       1.99       8.45       0.85
H       0.66       8.68      -0.34
H      -1.00       8.69       1.57
H      -0.07       7.19       1.55
H       0.33       8.46       2.73
O       5.62      12.85      -0.92
O       1.03      10.31       0.90
C       3.28      14.65      -4.54
C       3.36       8.45       4.46
C       4.55      11.44       0.67
C       2.10      11.72      -0.70
C       3.39      10.77       1.13
C       3.25      12.39      -1.16
C       2.16      10.92       0.43
C       4.48      12.25      -0.46
C       3.43       9.98       2.30
C       3.22      13.16      -2.34
C       3.24      13.83      -3.36
C       3.39       9.29       3.30
C       5.67      14.30      -0.75
C       6.64      14.89      -1.74
C       0.98       8.86       0.71
C       0.00       8.28       1.70
