16

Cl      12.18      14.23      17.19
O      13.53      14.41      23.31
C      12.69      14.11      21.13
O      14.63      15.37      21.57
C      11.60      13.36      21.60
C      12.83      14.35      19.76
C      10.69      12.84      20.69
C      11.92      13.83      18.84
C      10.83      13.05      19.30
C       9.83      12.39      18.41
H      11.49      13.19      22.67
H      13.67      14.94      19.41
O      10.12      12.26      17.18
H       9.83      12.26      21.02
O       8.76      11.97      18.97
C      13.70      14.67      22.08
