26

C       8.67      13.22       0.78
C      10.07      13.06       0.82
C      10.89      13.54      -0.21
C       8.05      13.87      -0.30
C      10.24      14.10      -1.33
C       8.87      14.26      -1.38
C      13.21      13.67      -1.29
C       5.67      14.42      -1.24
C      13.28      13.60       0.87
C       6.04      14.97       0.83
H      10.85      14.49      -2.15
H       8.41      14.77      -2.22
H      12.95      13.68      -2.34
H       5.69      14.04      -2.26
N      14.49      13.80      -0.91
N       4.59      15.09      -0.78
N      14.55      13.75       0.46
N       4.82      15.41       0.53
H       8.54      12.38       2.47
H      11.44      12.61       2.14
C      12.35      13.54      -0.18
C       6.65      14.30      -0.24
O       7.92      12.75       1.82
O      10.51      12.40       1.95
F      13.04      13.53       2.22
F       6.59      15.28       2.02
