16

C       4.04      -1.73       6.30
C       8.62       1.74       6.30
H       5.31      -0.75       4.15
H       7.34       0.75       4.15
O       3.32      -1.87       5.26
O       9.34       1.87       5.26
H       5.35      -0.77       8.47
H       7.31       0.78       8.47
O       3.75      -2.40       7.36
O       8.90       2.41       7.36
C       5.77      -0.41       5.08
C       6.89       0.41       5.08
C       5.21      -0.83       6.31
C       7.44       0.83       6.31
C       5.78      -0.42       7.53
C       6.88       0.42       7.53
