30

Cl      13.25       4.21      21.79
Cl      13.31       1.41      21.23
H       8.36       3.13      20.48
H       9.07       3.32      22.61
Cl      10.79      -0.05      19.26
H      11.03       0.41      21.91
O       8.47       2.11      15.12
O      12.07       0.52      26.18
O       9.41       4.19      15.17
H       8.92       1.06      20.05
H       9.45       1.09      22.28
O      13.36       2.38      26.40
C       9.14       3.06      15.67
C      10.36       1.24      21.68
C       9.99       1.25      20.18
F       9.21       4.85      19.92
C      11.45       2.45      23.51
F      12.54       2.51      18.82
C       9.87       2.75      18.20
F      11.80       4.46      19.47
C       9.58       2.84      17.02
C      12.46       1.67      25.82
C       9.36       3.58      20.48
C      11.74       3.12      19.74
C      12.27       2.85      21.21
C      11.86       2.19      24.62
C      10.26       2.66      19.59
C       9.88       3.63      21.95
C      11.02       2.58      22.13
Cl      10.26       5.29      22.49
