38

H       5.96       9.83      12.80
H       4.26      11.63      12.49
H       3.85      11.75      16.80
H       5.62      10.01      16.92
H       2.62      13.08      13.38
H       2.66      13.52      16.42
H       1.26      14.67      13.04
H      -0.48      16.40      12.85
H      -0.62      16.73      17.15
H       1.13      15.02      17.34
H      -1.88      18.02      13.79
H      -2.45      17.80      16.81
H      -3.19      19.56      13.46
H       4.75      21.40      13.32
H       3.73      21.09      17.31
H      -4.23      19.20      17.66
C       5.49      10.32      13.65
C       4.53      11.30      13.49
C       3.91      11.88      14.62
C       4.31      11.39      15.88
C       5.28      10.40      15.95
C       2.91      12.92      14.42
C       2.35      13.68      15.38
C       1.33      14.70      15.21
C       0.85      15.11      13.94
C      -0.13      16.08      13.84
C      -0.71      16.67      14.98
C      -0.22      16.27      16.25
C       0.77      15.31      16.35
C      -1.75      17.66      14.81
C      -2.55      18.16      15.79
C      -3.55      19.20      15.59
C      -3.75      19.83      14.35
C       4.91      20.87      14.26
C       4.33      20.70      16.49
C      -4.34      19.65      16.67
N       5.87       9.87      14.86
N       4.18      21.32      15.31
