24

H       4.32       9.35      14.30
H       0.40       7.66      14.86
H       5.20      10.96      15.95
H       5.03      12.12      18.15
H       1.14      10.45      18.78
H      -0.83       8.24      16.80
H      -0.33       9.39      17.92
C       2.45       7.77      13.15
C       2.37       8.45      14.47
C       3.06      11.33      18.58
C       4.32      10.83      16.58
C       4.23      11.47      17.79
C       2.02      10.53      18.14
C       2.10       9.81      16.93
C       3.29       9.96      16.12
C       3.42       9.25      14.91
C       1.20       8.30      15.24
C       1.06       8.93      16.47
C       2.97      12.01      19.90
N      -0.04       8.68      17.26
O       1.34       7.47      12.60
O       3.60       7.54      12.65
O       1.82      12.31      20.35
O       4.09      12.22      20.49
