28

H       3.68       9.57       4.84
H       3.55       9.75       2.35
H       7.31       7.66       2.06
H       3.32       9.85      -2.02
H       6.93       7.96      -4.84
H       7.13       7.83      -2.36
C       5.55       8.52       6.35
C       5.00       8.91      -6.33
C       5.57       8.56       4.86
C       4.48       9.17       4.21
C       4.40       9.27       2.83
C       5.43       8.73       2.03
C       6.52       8.10       2.66
C       6.60       8.02       4.05
C       5.37       8.78       0.62
C       5.31       8.79      -0.60
C       5.23       8.82      -2.01
C       4.11       9.41      -2.63
C       4.00       9.45      -4.02
C       5.02       8.91      -4.84
C       6.14       8.34      -4.20
C       6.25       8.28      -2.82
Cl       7.97       7.17       4.68
Cl       2.59      10.24      -4.64
O       4.41       8.64       6.91
O       3.89       9.07      -6.92
O       6.12       8.76      -6.92
O       6.66       8.38       6.96
