31

H       2.04       1.15       5.81
O       4.21       4.36       6.65
O       2.12       3.57       6.29
O       2.91      -2.38       4.57
O       1.41      -0.97       5.51
H       5.05      -2.51       4.81
H       5.94       2.74       6.46
H      11.16      -0.22       6.68
H       7.83       2.48       6.57
H      10.23       2.08       6.87
H       7.45      -2.88       5.12
H       0.73      -1.70       5.41
C       7.35       0.42       6.07
C       7.89      -0.89       5.87
C       5.91       0.63       5.92
C       5.06      -0.46       5.53
C       5.68      -1.71       5.21
C       7.02      -1.91       5.38
C       5.33       1.88       6.18
C       3.12       1.00       5.80
C       9.28      -1.11       6.13
C       9.85      -2.50       6.19
C       3.39       3.43       6.38
C       3.64      -0.25       5.48
C       3.96       2.08       6.13
C      10.10      -0.04       6.47
C       9.57       1.25       6.60
C       8.22       1.47       6.43
C       2.65      -1.32       5.13
O      11.08      -2.69       5.88
O       9.08      -3.41       6.61
