20

S      16.53       4.36       2.65
H      12.24       1.46       4.98
H      14.40       2.94       1.57
H      13.95       2.49       6.48
H      17.92       3.60       3.99
C      16.12       3.82       5.88
O      15.68       4.04       7.05
O      17.34       4.02       5.53
C      12.21       1.51       2.26
O      11.23       0.89       2.80
O      12.41       1.65       1.01
O      17.85       3.55       2.99
O      16.34       4.23       1.23
O      16.56       5.66       3.27
C      15.14       3.27       4.89
C      13.22       2.12       3.18
C      15.26       3.40       3.48
C      13.09       2.00       4.57
C      14.30       2.83       2.64
C      14.04       2.57       5.40
