21

C       8.13       6.08       8.88
C       8.10       5.07       6.86
C       9.49       4.95       6.91
C       9.51       5.93       8.95
H       7.52       4.71       6.01
C       9.63       6.52      10.33
C       8.04       6.74      10.25
H       7.45       6.14      10.97
H      10.05       4.52       6.08
H      10.20       7.46      10.37
C       7.47       8.64      11.51
C       7.59      10.15      11.42
N       7.38       5.63       7.88
N      10.22       5.35       7.98
H      10.01       5.84      11.10
H       8.25       8.24      12.18
H       6.48       8.34      11.91
H       6.82      10.58      10.77
H       7.48      10.59      12.42
O       7.62       8.08      10.19
H       8.58      10.43      11.02
