14

I      16.93       9.13      11.95
H      12.94       8.38      12.28
O      14.84      10.58      13.81
H      15.77       6.58      10.83
O      12.60      10.60      13.33
C      13.80       6.90      10.20
H      12.89       7.50      10.22
C      13.74       5.67       9.38
C      14.97       8.37      11.81
C      13.89       8.89      12.44
C      14.89       7.21      10.93
C      13.78      10.12      13.25
O      14.85       5.12       9.06
O      12.56       5.27       9.08
