30

H       1.93      13.66       9.46
H      -1.93       7.94      13.55
H      -2.84      10.07       9.37
H       2.84      11.53      13.63
H      -2.93       8.67      11.40
H       2.93      12.92      11.61
C       0.19      13.88       7.52
C      -0.19       7.72      15.48
C       1.12      12.94       9.60
C      -1.12       8.66      13.40
C       0.11      12.88       8.63
C      -0.11       8.72      14.37
C      -0.92      11.94       8.78
C       0.92       9.66      14.22
C      -1.00      11.10       9.92
C       1.00      10.50      13.09
C       0.02      11.21      10.92
C      -0.02      10.39      12.08
C       1.09      12.14      10.75
C      -1.09       9.46      12.26
C      -2.05      10.15      10.13
C       2.06      11.45      12.88
C      -2.10       9.37      11.25
C       2.10      12.22      11.76
Br      -2.21      11.67       7.40
Br       2.21       9.93      15.61
O       1.36      14.22       7.14
O      -1.36       7.37      15.87
O      -0.90      14.35       7.09
O       0.90       7.25      15.92
