26

C      11.28       6.66       8.80
H      10.14      13.51       9.06
C      12.17       4.68       7.54
H      14.12      12.01       8.41
C      11.38       7.59       9.82
H      13.70      10.34      10.24
S      12.86       8.66      11.97
S      11.29       9.95      11.93
H      14.28       5.14       9.28
H      10.40       6.61       8.17
N      13.55       6.71      10.41
H      10.59       8.31      10.03
N      10.72      11.94      10.29
C      12.35      13.88       7.49
O      13.21       4.04       7.19
C      12.14      12.87       8.57
O      10.99       4.51       7.09
C      10.95      12.82       9.29
O      13.54      14.06       7.11
C      13.16      11.97       8.93
O      11.31      14.49       7.06
C      12.93      11.05       9.94
C      11.70      11.06      10.61
C      12.54       7.56      10.60
C      13.44       5.82       9.41
C      12.31       5.74       8.58
