20

C      12.85      15.47       3.04
C      14.83      14.28       4.79
C      13.98      16.17       3.45
C      13.67      13.58       4.37
C      14.93      15.59       4.30
C      12.72      14.16       3.52
C      14.73      17.48       3.36
C      15.81      16.82       4.32
H      11.85      13.58       3.22
H      15.10      17.74       2.35
H      14.21      18.35       3.77
H      15.91      17.30       5.30
H      16.81      16.69       3.89
Br      13.27      11.79       4.89
C      15.91      13.76       5.68
C      11.81      16.04       2.15
O      15.82      12.57       6.10
O      16.85      14.59       5.94
O      10.81      15.30       1.86
O      12.00      17.24       1.74
