15

N      24.84      22.27      13.39
N      24.35      22.28      12.15
C      22.90      20.72      10.88
N      21.50      19.91       8.59
N      23.67      20.44      13.22
N      24.43      21.17      14.02
C      22.05      19.61      10.91
H      21.92      19.04      11.83
C      21.37      19.25       9.75
H      20.67      18.41       9.75
H      23.68      22.29       9.60
C      22.33      20.97       8.56
C      23.03      21.42       9.67
H      22.43      21.47       7.59
C      23.63      21.14      12.07
