28

N      -6.97      10.46       6.19
O      -8.55      12.59       2.58
H      -6.58      12.87       8.59
O      -7.69      11.19       1.01
H      -5.54      12.69       7.17
O      -7.22       7.64       6.46
H      -7.25      13.08       6.95
H      -7.89      10.86       7.99
H      -6.17      10.42       8.11
H      -5.24       9.26       6.26
H      -4.65      11.62       5.36
H      -4.09      10.30       4.34
H      -5.36      12.21       3.02
H      -8.53       9.36       3.56
H      -5.95       8.56       3.68
O      -9.22      10.89       5.75
O      -7.55       6.69       4.42
C      -6.54      12.50       7.56
C      -6.90      11.01       7.53
C      -5.84       9.80       5.52
C      -5.00      10.80       4.71
C      -5.79      11.37       3.57
C      -7.02      10.93       3.27
C      -7.81      11.62       2.21
C      -7.69       9.83       4.08
C      -6.57       8.86       4.53
C      -7.15       7.63       5.19
C      -8.10      10.46       5.44
