26

F       0.90       0.24       8.23
F      -3.74      -1.75       9.49
H       0.61       2.73       8.37
H      -3.48      -4.22       9.21
H       0.58      -4.13       7.80
H       0.55      -1.69       7.89
H      -3.57       2.65       9.38
H      -3.55       0.22       9.27
C      -1.42      -5.84       8.52
C      -1.51       4.36       8.84
C      -1.49       2.87       8.87
C      -1.44      -4.35       8.50
C      -0.31       2.18       8.58
C      -0.31       0.80       8.53
C      -2.59      -3.67       8.93
C      -2.58      -2.29       9.01
C      -0.32      -3.61       8.13
C      -0.35      -2.22       8.19
C      -2.64       2.13       9.14
C      -2.62       0.74       9.08
C      -1.46      -0.00       8.76
C      -1.47      -1.48       8.66
O      -0.30      -6.41       8.31
O      -0.41       4.95       8.57
O      -2.63       4.93       9.05
O      -2.52      -6.43       8.78
