12

C       8.99      10.70       2.24
O      11.44       8.66      11.49
C       9.25      10.12       3.54
O       9.19       8.52      11.87
C       9.37       9.84       4.72
C       9.50       9.58       6.03
C       9.62       9.42       7.25
C       9.79       9.25       8.57
C      10.23       8.76      11.14
C       9.97       9.11       9.77
O       7.80      11.04       2.02
O      10.00      10.86       1.46
