31

C       4.33       5.22      20.14
C       4.00       5.14      21.50
C       4.75       7.49      21.79
C       5.09       7.54      20.44
C       4.88       6.40      19.62
C       4.23       6.29      22.32
C       3.90       6.22      23.68
C       5.23       6.42      18.24
C       3.62       6.19      24.87
H       4.19       4.37      19.47
H       5.52       8.43      19.99
C       3.11       6.44      26.18
C       3.25       2.80      21.33
C       4.90       8.67      22.72
C       5.64       9.87      22.16
N       3.46       4.02      22.06
H       3.29       4.05      23.05
H       2.82       2.06      22.01
O       3.41       7.54      26.72
H       4.20       2.39      20.93
H       2.56       2.94      20.49
H       6.66       9.58      21.87
H       5.14      10.29      21.28
H       5.71      10.66      22.92
H       3.89       8.97      23.05
H       5.39       8.32      23.65
O       2.33       5.53      26.69
O       5.73       5.00      15.19
O       6.86       6.97      15.28
C       6.05       6.08      15.75
C       5.52       6.35      17.06
