19

H       5.85       4.00       5.47
H       7.09       2.52       4.39
H       2.32       1.98       2.90
H       2.93       1.87       7.51
H       2.08       2.59       6.15
H       3.24       1.28       5.85
C       4.24       4.17       7.43
C       5.18       2.48       4.12
C       4.13       2.07       3.33
C       5.06       3.26       5.34
C       4.14       3.17       6.33
C       4.25       1.30       2.07
C       3.04       2.17       6.46
O       3.13       4.53       7.96
O       5.39       4.59       7.79
O       3.10       1.02       1.55
O       5.38       1.00       1.58
O       6.47       2.25       3.69
O       2.84       2.41       3.63
