14

C       2.32      -0.39       8.62
C       1.10      -1.06       8.78
N       3.56      -0.99       8.60
N      -0.14      -0.46       8.81
O       3.53       1.63       8.59
O       2.15      -3.18       9.03
O      -0.11      -3.08       8.82
O       1.28       1.73       8.37
H       3.57      -2.00       8.51
H       4.28      -0.48       8.10
H      -0.15       0.55       8.89
C       2.38       1.08       8.53
H      -0.86      -0.97       9.31
C       1.05      -2.53       8.87
