16

O      25.17       6.38       7.42
O      26.49       8.19       7.42
C      25.51       7.52       6.98
C      22.22       9.92       2.62
C      24.66       8.14       5.87
C      23.06       9.31       3.74
C      23.54       7.46       5.32
C      24.19       9.99       4.29
C      22.76       8.03       4.29
Br      24.73      11.70       3.67
Br      21.28       6.98       3.67
Br      26.44      10.46       5.94
Br      22.99       5.74       5.94
O      22.55      11.07       2.19
O      21.23       9.26       2.19
C      24.97       9.42       5.32
