38

H      -5.24      -5.48      11.59
H      -5.79      -4.83      13.79
H      -1.98      -4.42      11.66
H      -2.27      -4.77      13.84
H      -3.54      -5.75      11.98
H      -4.34      -5.77      14.19
H      -7.80      -4.06      11.44
H      -7.84      -2.52      14.64
H      -5.08       0.60      11.08
H      -2.99      -0.39      15.50
C      -4.09      -3.76      15.69
C      -4.74      -2.32      13.60
C      -4.93      -2.53      12.01
C      -4.00      -3.85      10.01
C      -4.39      -5.06      12.13
C      -4.71      -4.90      13.62
C      -2.51      -3.55      12.07
C      -2.55      -3.74      13.63
C      -6.45      -2.80      11.62
C      -6.10      -1.93      14.26
C      -4.67      -1.23      11.18
C      -3.80      -1.14      13.98
C      -3.97      -3.68      11.53
C      -4.02      -3.62      14.16
Cl      -1.54      -2.19      11.47
Cl      -1.29      -2.81      14.47
O      -5.16      -3.40      16.27
O      -3.11      -4.35      16.25
O      -2.91      -4.18       9.45
O      -7.20      -1.93      11.25
O      -6.87      -4.09      11.73
O      -5.14      -3.78       9.46
O      -6.34      -0.81      14.65
O      -7.03      -2.92      14.25
O      -4.07      -1.24      10.12
O      -5.29      -0.15      11.68
O      -3.19      -0.42      13.22
O      -3.68      -1.06      15.33
