23

C      13.92      13.41      11.36
H      15.78      15.00      13.72
H      14.10      15.52      14.85
C      14.92      12.53      10.95
H      11.91      15.19      11.13
C      16.41      13.38      12.49
C      12.33      16.68      14.71
C      11.09      16.49      12.64
C      13.17      15.26      12.90
H      17.42      13.33      12.92
H      10.48      17.70      14.33
C      15.49      14.30      12.95
H      12.95      13.36      10.88
C      14.19      14.33      12.40
N      16.15      12.50      11.50
C      13.28      15.80      14.19
H      14.74      11.81      10.15
O      11.61      18.07      16.51
C      12.50      17.21      16.10
H      10.21      16.75      12.05
C      12.04      15.61      12.13
O      13.46      16.83      16.81
C      11.22      17.03      13.92
