16

O      15.89       3.78       7.10
O      12.48       1.66       1.04
O      17.15       4.55       5.38
Cl      16.54       4.18       2.63
Cl      11.83       1.25       5.52
C      12.22       1.50       2.28
H      14.37       2.84       1.62
C      13.20       2.11       3.25
C      15.27       3.39       3.49
C      13.10       2.04       4.66
C      14.29       2.79       2.70
C      14.08       2.65       5.44
C      15.18       3.33       4.89
H      14.00       2.60       6.53
C      16.15       3.93       5.86
O      11.22       0.89       2.77
