20

H       6.50       1.06      10.02
H      12.00      -1.06      12.64
H       9.71       2.91      12.64
H       8.79      -2.91      10.02
C       7.21      -1.17       9.67
C      11.28       1.17      12.99
C       8.25      -0.58      10.51
C      10.25       0.58      12.15
C       8.13       0.78      10.92
C      10.36      -0.78      11.73
C       9.13       1.36      11.73
C       9.37      -1.36      10.92
O       6.21      -0.45       9.30
O       7.34      -2.41       9.30
O      12.29       0.45      13.35
O      11.16       2.41      13.35
O       7.11       1.60      10.58
O      11.39      -1.60      12.07
O       8.94       2.65      12.07
O       9.56      -2.65      10.58
