38

N      24.93      21.30       9.68
N      23.64      18.92       6.46
H      22.85      23.58       9.01
H      23.70      21.79       6.82
H      22.40      19.96       9.21
O      21.74      20.29       1.93
H      20.63      19.79       6.85
O      21.70      22.58       1.95
O      20.37      21.98      13.92
O      22.62      21.58      13.89
C      20.31      22.73       8.64
C      21.49      21.89      11.90
C      21.58      21.72       6.59
C      22.86      22.44       7.12
C      21.48      20.39       8.79
C      21.51      21.89       9.25
C      20.37      19.62       9.34
C      22.69      19.51       6.79
C      21.48      21.94      10.69
C      20.08      23.74       6.30
C      19.10      21.63       6.68
C      19.03      22.37       9.27
C      20.54      24.15       8.92
C      23.11      23.74       6.52
C      24.00      21.86       9.26
C      21.62      21.61       5.15
C      21.67      21.46       3.95
C      21.71      21.44       2.50
C      22.83      22.52       8.69
C      21.49      21.82      13.34
C      21.54      20.29       7.23
C      20.25      22.48       7.03
N      19.52      18.95       9.76
N      19.89      24.71       5.70
N      18.22      20.94       6.36
N      18.01      22.15       9.77
N      20.76      25.27       9.16
N      23.37      24.78       6.06
