24

N      13.37      16.13      10.86
N      15.49      18.53       9.03
N      19.65      20.38       6.85
O      17.22      17.30       9.96
H      11.31      16.07      11.00
H      10.98      18.13       9.60
H      13.01      19.29       8.66
C      12.15      16.61      10.58
C      11.98      17.75       9.80
H      18.51      22.08       7.16
H      15.43      16.30      10.63
H      19.02      17.28       8.06
H      20.67      18.59       6.66
H      16.78      20.94       8.54
C      14.38      17.89       9.58
C      14.47      16.74      10.38
C      13.10      18.40       9.29
H      15.24      19.27       8.34
C      17.62      20.37       8.15
C      17.76      19.00       8.39
C      16.80      18.20       9.21
C      18.89      18.34       7.86
C      18.59      21.01       7.38
C      19.79      19.06       7.10
