20

O       5.64       8.57      10.09
O       6.41       6.69      22.25
O       5.48       6.29      10.17
O       6.20       8.96      22.13
H       6.59       9.63      14.79
H       5.85       5.53      17.50
H       6.88       9.70      17.26
H       5.56       5.46      15.03
C       5.59       7.45      10.69
C       6.35       7.80      21.63
C       6.59       8.78      16.77
C       5.85       6.38      15.53
C       6.37       7.62      17.55
C       6.04       7.54      14.74
C       6.01       6.42      16.90
C       6.43       8.74      15.39
C       6.45       7.68      18.96
C       5.85       7.51      13.34
C       5.69       7.49      12.13
C       6.44       7.74      20.18
