26

O      -7.25      -2.57      13.90
O      -1.51      -6.50      15.74
O      -2.57      -7.65      14.09
H      -6.37      -4.88      16.09
H      -5.31      -3.69      16.87
H      -3.55      -5.23      16.94
H      -4.69      -6.46      16.37
H      -2.01      -4.06      15.31
H      -2.30      -4.23      13.57
H      -3.65      -2.40      15.47
H      -3.76      -2.42      13.71
H      -6.52      -4.96      13.54
H      -5.33      -4.08      12.59
H      -3.97      -5.98      12.72
H      -5.05      -6.74      13.87
C      -6.28      -2.51      14.71
C      -2.45      -6.65      14.88
C      -5.38      -4.41      16.04
C      -4.26      -5.47      16.14
C      -3.50      -5.55      14.79
C      -2.79      -4.20      14.55
C      -3.83      -3.05      14.61
C      -5.26      -3.64      14.70
C      -5.48      -4.62      13.54
C      -4.51      -5.81      13.66
O      -6.08      -1.58      15.57
