16

O       4.66       6.25       2.67
O       4.66       4.96       0.83
C       4.66       0.26       5.53
Cl       4.66       3.09       6.90
Cl       4.66       2.29       0.72
Cl       4.66       5.48       5.22
Cl       4.66      -0.09       2.40
C       4.66       1.51       4.65
C       4.66       3.88       2.97
C       4.66       2.81       5.21
C       4.66       2.57       2.41
C       4.66       3.97       4.39
C       4.66       1.41       3.23
O       4.66      -0.87       4.95
O       4.66       0.43       6.79
C       4.66       5.12       2.09
