16

H       0.83      -1.25       8.25
H      -3.46      -1.08       8.57
H       0.72      -3.75       8.31
O      -2.54      -5.92       8.47
O      -2.40       1.08       8.30
O      -0.13       1.04       8.36
C      -1.41      -5.33       8.50
C      -1.41      -3.83       8.48
C      -1.27       0.48       8.35
F      -3.80      -3.62       8.70
C      -1.31      -1.01       8.39
C      -2.57      -3.05       8.56
C      -0.12      -1.76       8.33
C      -2.54      -1.66       8.51
C      -0.19      -3.15       8.37
O      -0.27      -5.90       8.55
