16

O      16.72       7.54       9.86
S      11.18       7.32      12.92
S      14.76       8.94      11.49
C      10.15       9.51      14.28
O      15.65       5.52       9.77
C      12.41       9.61      13.05
C      13.52       6.63      11.36
C      11.25       8.97      13.47
C      14.67       7.29      10.95
C      12.70       7.48      12.13
C      13.25       8.77      12.28
C      15.76       6.74      10.13
F      12.73      10.88      13.33
H      13.31       5.59      11.10
O      10.24      10.73      14.65
O       9.20       8.69      14.54
