13

O      11.26       5.52       5.83
O      12.08       6.51       4.01
C      10.93       8.54       8.33
C       9.68       8.66       7.45
C      10.47       7.74       5.29
C      11.32       6.51       5.02
H       9.68       9.65       6.97
H       8.82       8.60       8.13
H       9.89       7.97       4.39
H      11.15       8.59       5.43
N       9.59       7.57       6.47
O      11.62       7.47       8.21
O      11.22       9.46       9.14
