16

C      18.57       8.49      28.13
C      18.57       9.10      26.85
O      18.54      11.83      30.77
O      18.54       4.54      26.15
H      18.56       8.39      24.73
H      18.57       9.20      30.25
O      18.54      13.05      28.83
S      18.57       6.77      28.01
S      18.56      10.82      26.97
C      18.55      11.96      29.50
C      18.57       8.17      25.79
C      18.57       5.63      25.49
C      18.56      10.72      28.71
C      18.57       9.42      29.19
C      18.57       6.87      26.28
O      18.60       5.76      24.22
