34

H       3.41      16.34      13.08
H       3.53      16.33      10.57
H       1.03      12.77      12.97
H       1.03      16.14       3.72
H       3.41      12.57       3.62
H       3.53      12.58       6.12
H       1.84      11.74       9.77
H       0.41      12.73       9.47
H       0.48      11.70      10.92
H       1.84      17.18       6.92
H       0.41      16.19       7.22
H       0.48      17.22       5.77
C       2.09      14.34       2.05
C       2.09      14.58      14.65
C       2.20      14.56      13.16
C       2.91      15.57      12.50
C       2.98      15.56      11.11
C       2.38      14.51      10.37
C       1.69      13.47      11.04
C       1.59      13.54      12.43
C       2.45      14.50       8.96
C       2.45      14.42       7.74
C       2.38      14.40       6.32
C       1.69      15.45       5.65
C       1.59      15.38       4.26
C       2.20      14.35       3.53
C       2.91      13.35       4.20
C       2.98      13.36       5.59
C       1.07      12.35      10.27
C       1.07      16.57       6.43
O       1.11      14.96       1.52
O       3.00      13.71       1.40
O       1.11      13.96      15.17
O       3.00      15.21      15.30
