30

H       0.87      12.62      12.67
H       0.85      12.78      10.19
H       3.01      16.50      10.43
H       3.14      16.26      12.90
H       3.01      12.03       6.05
H       0.85      15.76       6.28
H       0.87      15.92       3.80
H       3.14      12.27       3.57
H       2.01      15.80       8.30
H       2.01      12.73       8.18
O       2.99      13.59       1.45
O       1.12      14.87       1.48
O       2.99      14.94      15.03
O       1.12      13.66      14.99
C       2.04      14.20       2.06
C       2.05      14.33      14.42
C       2.02      14.42      12.94
C       1.37      13.44      12.17
C       1.36      13.54      10.78
C       1.95      14.64      10.13
C       2.55      15.64      10.92
C       2.62      15.52      12.30
C       1.94      14.78       8.68
C       1.94      13.76       7.80
C       2.55      12.90       5.56
C       1.95      13.89       6.35
C       1.36      15.00       5.69
C       1.37      15.09       4.31
C       2.02      14.11       3.54
C       2.62      13.02       4.18
