16

O       7.53       7.63      17.02
C       7.46       7.80      18.29
S       7.54       5.03      18.31
S       7.36       4.31      22.43
O       7.39       8.91      18.91
O       7.36       1.69      23.69
C       7.45       1.54      22.42
H       7.57       1.99      19.59
C       7.39       6.46      20.48
C       7.51       2.87      20.24
C       7.45       6.58      19.10
C       7.45       2.77      21.62
C       7.49       4.22      19.83
C       7.41       5.11      20.91
O       7.53       0.44      21.78
F       7.31       7.49      21.34
