14

O       2.67      11.81      15.60
O       4.92      11.60      15.78
C       4.90      10.02      13.43
C       3.78      10.50      14.02
C       4.93       9.17      12.25
H       5.85      10.29      13.89
C       3.80      11.36      15.22
H       2.78      10.27      13.64
H       5.89       8.76      11.95
C       3.86       8.85      11.50
H       2.86       9.23      11.71
O       2.82       7.72       9.75
O       5.06       7.47       9.99
C       3.93       7.95      10.33
