49

O       6.52       5.40       8.49
O       9.66      -7.49      10.48
H       8.16       3.65       8.22
O       4.81       4.90       9.91
O       8.24      -7.77       8.72
H       3.72      -0.37       9.10
H       3.35       0.76      10.43
H       3.34      -1.10      12.08
H       2.21      -1.48      10.75
H       3.82      -2.26      10.81
H       8.73      -3.05      11.93
H       4.96      -3.15       8.42
H       5.55      -4.36       7.25
H       5.61      -2.59       5.46
H       3.97      -2.76       6.14
H       5.00      -1.39       6.63
H       8.97       1.27       8.29
H       8.32      -6.58       5.86
H       9.52      -6.22       7.12
H       9.52      -3.78       6.42
H      10.00      -4.85       5.08
H       8.36      -4.16       5.14
H       4.57       2.47      10.26
H       9.34      -5.47      11.63
C       5.85       4.60       9.22
C       8.53      -5.60       9.65
C       7.90      -4.90       8.59
C       7.55      -3.54       8.76
C       8.84      -7.06       9.60
C       7.89      -2.87       9.96
C       8.51      -3.58      11.00
C       8.84      -4.91      10.84
C       5.98       0.87       9.91
C       5.53       2.19       9.83
C       7.26       0.55       9.36
C       6.32       3.19       9.24
C       7.57       2.87       8.69
C       8.02       1.56       8.73
C       3.84      -0.19      10.18
C       3.27      -1.32      11.00
C       5.55      -3.29       7.50
C       5.00      -2.45       6.37
C       8.70      -5.79       6.53
C       9.17      -4.57       5.75
N       7.54      -1.54      10.21
N       7.78      -0.74       9.25
O       5.26      -0.13      10.47
O       6.91      -2.86       7.76
O       7.58      -5.47       7.39
