15

N      15.56       9.45       9.05
O      18.60       8.32      13.15
H      17.91       8.18       9.89
C      14.61      10.61      10.67
C      18.72       8.05      11.94
C      17.75       8.50      10.92
N      13.90      10.82       9.52
O      19.72       7.33      11.47
H      14.15      10.07       7.53
C      15.67       9.75      10.40
H      16.13       8.78       8.48
H      16.61       9.54      12.32
H      14.34      11.07      11.62
C      16.69       9.26      11.27
C      14.49      10.10       8.56
