16

C       4.51       5.60       0.88
C       3.73       5.58      -1.43
H       6.65       5.36      -0.21
O       2.91       6.14      -3.55
O       4.05       5.78       3.74
H       3.48       5.55       1.23
H       2.74       5.81      -1.04
O       6.12       6.75       3.86
C       4.77       5.45      -0.54
H       7.23       6.33       2.29
O       4.90       5.02      -3.40
C       3.87       5.57      -2.88
C       5.16       6.15       3.25
O       6.03       5.25      -0.97
O       6.78       6.00       1.49
C       5.46       5.87       1.81
