25

O       7.93       2.79       6.39
O      17.90       5.97      10.56
C       7.55       3.62       7.38
H       7.43       5.68       9.94
C       8.30       4.29       8.39
H      18.10       3.21       6.91
H      16.94       6.14      10.48
C       7.31       5.03       9.08
H       8.80       1.34       7.63
H       9.96       2.43       6.79
H       9.05       1.18       5.87
C      18.32       3.82       7.77
C       9.02       1.88       6.70
C      16.04       4.74       8.44
C      18.25       5.15       9.55
N       6.26       3.97       7.47
C      17.43       4.61       8.52
N       6.11       4.84       8.52
C       9.68       4.36       8.54
C      10.91       4.48       8.57
N      19.54       3.88       8.32
C      12.24       4.61       8.55
C      13.47       4.71       8.50
C      14.81       4.77       8.46
N      19.50       4.70       9.42
