18

H       7.28       7.30       1.52
H       8.75       7.41       2.47
H      11.99       6.74       1.92
H      10.74       7.91       1.88
N      11.06       5.42       0.01
N       8.20       5.62      -0.17
N       8.28       7.14       1.62
N      10.99       6.92       1.83
H      11.01       4.29      -2.95
H      10.82       2.84      -1.91
H       8.32       3.03      -2.11
H       8.51       4.48      -3.13
C      10.32       4.75      -0.90
C       8.91       6.31       0.75
C       8.96       4.86      -1.00
C      10.36       6.21       0.84
C      10.45       3.85      -2.11
C       8.86       3.98      -2.23
