26

C       3.56       7.27       5.46
H       5.28       6.80       4.22
N       4.29       4.99       6.88
C       2.82       6.84       6.56
H       3.25       8.16       4.92
C       3.21       5.69       7.26
O       6.51       3.67       6.40
O       1.68       7.53       6.91
H       2.64       5.32       8.12
C       1.52       7.85       8.26
H       3.50       8.68       8.48
C       2.55       8.47       8.97
O       1.84       9.56      12.96
H      -0.49       7.07       8.28
C       0.28       7.59       8.85
O      -0.20       8.69      12.94
O       6.76       4.66       4.38
C       5.01       5.39       5.81
H      -0.86       7.72      10.68
H       3.13       9.30      10.88
C       0.08       7.94      10.18
C       4.67       6.52       5.08
C       6.17       4.51       5.50
C       1.11       8.56      10.92
C       2.34       8.82      10.30
C       0.89       8.94      12.34
