26

C       1.33       1.76      11.37
C       3.37       8.97       7.21
H       4.59       5.99      10.62
H       0.11       6.20      10.50
H       5.45       4.01      11.86
H      -0.74       8.26       9.40
H       0.79       4.02      10.18
H       3.92       6.81       8.57
C       3.62       2.90      11.70
C       1.08       8.68       8.37
C       2.28       2.90      11.22
C       2.42       8.26       8.12
C       1.81       4.04      10.54
C       2.89       7.11       8.77
O       4.18       1.89      12.39
O       0.52       9.78       7.83
C       2.62       5.15      10.30
C       2.09       6.34       9.61
O       1.76       0.63      11.83
O       2.94       9.93       6.46
C       3.94       5.13      10.77
C       0.76       6.77       9.83
O       0.12       1.95      11.04
O       4.59       8.59       7.21
C       4.43       4.03      11.47
C       0.28       7.92       9.23
