36

H       2.75       9.76       7.66
H       6.97      10.11       7.96
H       3.29      12.28       6.46
H       2.76      12.00       8.14
H       5.66      11.90       5.91
H       3.31       9.00       9.99
H       3.46      10.42      10.82
H       6.70       9.27       9.69
H       5.90       9.72      11.05
H       3.18       8.40       4.55
H       8.30       9.09       5.11
H       6.93      12.27       7.10
H       4.55      12.20      10.06
H       6.22      11.85       9.57
C       4.86       8.12       7.89
C       5.99      11.74       6.94
C       4.84      10.16       9.34
C       4.86       9.65       7.83
C       4.90      12.27       7.90
C       5.17      11.68       9.31
C       4.95      13.79       7.99
C       3.42       9.91       5.67
C       6.68       9.52       5.97
C       3.59      10.25       7.15
C       6.17      10.22       7.22
C       3.54      11.77       7.40
N       3.49      10.00       9.89
N       5.77       9.34      10.12
O       3.77       7.57       8.24
O       3.46      10.70       4.74
O       3.12       8.59       5.51
O       6.02       9.13       5.02
O       8.05       9.46       5.98
O       5.95       7.52       7.63
O       3.85      14.41       7.87
O       6.08      14.32       8.22
