16

F      22.98       6.15       5.69
F      24.36      11.07       3.78
F      21.49       7.24       3.84
F      25.76      10.05       5.75
C      25.27       7.45       6.90
O      24.71       6.55       7.61
C      22.03       9.81       2.63
O      26.46       7.88       7.02
C      24.44       8.05       5.81
C      22.86       9.20       3.72
C      23.33       7.37       5.27
C      23.97       9.87       4.25
C      22.55       7.94       4.26
C      24.74       9.32       5.28
O      22.08      11.07       2.51
O      21.35       9.00       1.92
