24

H       6.71       4.37       6.59
H       4.40      -5.62       9.68
H       3.60       1.30      10.57
H       3.72       3.77      10.09
H       6.66       0.75       7.56
H       7.23      -2.51       7.16
C       5.98       2.74       7.93
C       5.97       1.37       8.13
C       5.09       0.83       9.07
C       4.28       1.69       9.81
C       4.34       3.06       9.55
C       4.74      -3.53       9.24
C       5.02      -4.89       9.16
C       5.56      -2.64       8.51
C       6.85      -4.54       7.78
C       6.61      -3.18       7.75
C       6.91       3.32       6.90
Br       3.24      -3.00      10.25
Br       8.33      -5.21       6.82
N       5.16       3.57       8.61
N       5.06      -0.57       9.35
N       5.44      -1.24       8.35
N       6.06      -5.39       8.46
O       7.82       2.66       6.42
