12

C       4.41       6.17       6.50
C       4.55       7.00       7.39
C       3.73       1.66       1.77
O       5.71       8.39       8.85
O       3.43       8.45       8.76
O       4.88       1.22       1.44
O       2.60       1.28       1.33
C       4.58       8.01       8.41
C       3.74       2.68       2.79
C       3.88       3.52       3.67
C       4.05       4.43       4.63
C       4.23       5.26       5.53
