54

H       4.81      15.93      11.19
H       8.05      22.03       8.22
H       8.06      15.85       8.37
H       4.85      22.15      11.08
H       8.59      17.75       9.63
H       4.29      20.24       9.81
H       4.28      17.76       9.84
H       8.59      20.22       9.60
H       2.84      14.70      10.99
H       2.87      13.22       9.99
H       2.35      13.14      11.69
H       4.66      12.25      11.48
H       4.65      13.70      12.46
H      10.06      24.69       9.34
H      10.03      23.23       8.33
H      10.53      24.79       7.63
H       8.19      24.28       6.93
H       8.24      25.72       7.93
H       8.54      14.44       6.51
H       9.81      14.68       7.74
H       9.82      13.23       6.73
H       8.97      12.66       9.00
H       7.80      12.34       7.77
H       3.15      23.33      11.80
H       4.47      23.60      12.97
H       3.17      24.79      12.78
H       5.13      25.69      11.64
H       3.92      25.30      10.45
C       5.51      14.00      10.56
C       7.39      23.97       8.86
C       7.31      13.96       9.05
C       5.61      24.04      10.39
C       5.52      15.40      10.55
C       7.36      22.57       8.87
C       7.34      15.35       9.01
C       5.57      22.64      10.43
C       6.43      16.10       9.77
C       6.46      21.88       9.67
C       7.64      18.29       9.65
C       5.24      19.69       9.79
C       5.23      18.30       9.81
C       7.64      19.68       9.63
C       6.44      20.40       9.70
C       6.44      17.58       9.74
C       4.49      13.32      11.44
C       3.05      13.62      11.00
C       8.39      24.64       7.96
C       9.84      24.31       8.34
C       8.32      13.16       8.27
C       9.16      13.93       7.26
C       4.61      24.84      11.18
C       3.81      24.09      12.24
N       6.38      13.29       9.81
N       6.53      24.69       9.63
