23

C       7.34      13.46       1.13
H       7.02      11.48       0.39
H       7.10      14.59      -2.57
H       7.40      13.13       2.17
C       7.42      15.23      -0.53
H       7.52      16.28      -0.79
H       9.07      17.10       0.81
C       8.58      16.90       1.76
C       8.81      17.74       2.84
H       9.46      18.61       2.77
C       7.44      16.46       4.21
H       7.01      16.34       5.20
H       6.49      14.74       3.35
C       7.16      15.58       3.17
C       7.04      12.93      -1.21
C       7.50      14.82       0.82
N       8.25      17.52       4.05
C       7.74      15.78       1.91
O       6.57      12.31      -3.45
C       7.13      12.53       0.13
O       6.85      10.69      -1.90
C       6.80      11.90      -2.27
C       7.18      14.29      -1.53
