30

H      -7.78       3.93      13.94
H      -6.28       5.45      12.68
H      -7.83       3.98      18.22
H      -2.96       8.73      18.21
Br      -4.28       7.44      11.93
Br      -6.53       5.28      20.22
H      -4.50       7.24      19.47
H      -3.00       8.77      13.93
C      -7.39       4.35      14.87
C      -6.41       5.34      14.85
C      -5.89       5.85      13.62
C      -7.42       4.37      17.29
C      -6.42       5.35      17.33
C      -5.87       5.90      18.54
C      -3.37       8.34      17.28
C      -4.37       7.36      17.30
C      -4.90       6.85      18.53
C      -3.39       8.35      14.85
C      -4.38       7.36      14.83
C      -4.92       6.81      13.61
C      -7.90       3.87      16.08
C      -5.90       5.86      16.09
C      -2.89       8.83      16.07
C      -4.89       6.85      16.07
O      -9.14       2.17      14.99
O      -9.60       2.62      17.16
C      -8.95       2.81      16.07
O      -1.24      10.14      17.15
O      -1.60      10.47      14.94
C      -1.83       9.89      16.04
