28

Cl       1.58       3.95       0.74
Cl       1.53       3.87      -2.37
Cl       2.83       9.78      -8.82
Cl       1.12       4.65      -8.53
H       2.42       8.72       0.28
H       2.32       8.66      -2.23
H       2.72       9.39      -6.00
H       1.41       5.29      -5.77
C       1.99       7.13     -10.04
O       1.04       7.70     -10.66
O       1.03       6.22       2.63
O       2.94       6.47     -10.58
C       1.99       6.77       1.99
O       2.92       7.47       2.51
C       2.01       6.63       0.51
C       2.23       7.79      -0.25
C       2.18       7.76      -1.63
C       1.95       6.55      -2.30
C       1.76       5.36      -1.56
C       1.78       5.40      -0.15
C       2.42       8.48      -6.50
C       2.08       7.35      -5.74
C       1.68       6.16      -6.37
C       1.64       6.10      -7.76
C       2.00       7.22      -8.54
C       2.38       8.40      -7.89
N       1.87       6.44      -3.70
N       2.17       7.49      -4.34
