13

N       8.47       0.47       0.90
H       8.57       2.33       1.94
O       7.37       2.18      -0.85
O       9.29       2.83      -1.78
O       5.86       0.89       1.54
O       6.31       2.10       3.35
C       8.64       2.12      -0.96
C       9.37       1.10      -0.09
C       8.17       1.32       2.07
C       6.68       1.44       2.34
H      10.23       1.59       0.40
H       9.75       0.32      -0.76
H       8.66       0.93       2.98
