28

N      15.66       1.10       4.22
O      19.70       1.81       1.75
O      18.71      -0.23       1.98
O      18.56       3.87       3.25
O      12.32       3.74       7.14
O      13.21       5.83       7.06
H      12.96       1.13       3.53
H      12.75      -0.63       3.69
H      13.84       0.02       2.45
H      15.14      -0.89       4.40
H      14.28       0.18       5.50
H      16.77      -0.27       3.12
H      17.20       5.36       4.51
H      15.24       6.09       5.94
H      13.63       2.12       5.75
C      13.48       0.16       3.48
C      14.64       0.08       4.47
C      16.73       0.77       3.45
C      17.74       1.62       3.06
C      18.80       1.03       2.20
C      17.71       3.01       3.50
C      16.52       3.36       4.34
C      16.41       4.68       4.80
C      15.33       5.07       5.58
C      14.34       4.13       5.92
C      14.43       2.81       5.47
C      15.52       2.42       4.68
C      13.20       4.59       6.77
