12

C      13.28      13.93       0.21
C      10.20      16.35       0.21
C      12.22      14.75       0.21
C      11.25      15.52       0.21
C      15.39      12.31       0.19
O      16.27      12.57      -0.70
C       8.11      17.99       0.19
O       8.20      18.98      -0.62
O      15.40      11.37       1.05
O       7.14      17.70       0.96
C       9.24      17.10       0.22
C      14.25      13.18       0.21
