20

C      16.89      11.06       4.79
C      20.09      12.01       3.32
C      16.77      12.36       5.32
C      20.21      10.72       2.79
C      18.87      12.12       4.06
C      18.12      10.94       4.07
S      18.12      13.41       4.93
S      18.86       9.67       3.17
H      16.22       9.12       4.70
H      15.19      10.26       5.54
H      20.97      13.80       3.78
H      21.86      12.76       2.70
N      15.96      10.08       4.91
N      20.97      13.03       3.13
C      15.69      12.88       6.12
C      21.30      10.20       2.00
O      14.70      12.08       6.38
O      15.79      14.09       6.52
O      21.23       8.97       1.63
O      22.28      11.01       1.73
