18

C      30.19      15.70      30.52
C      30.40      19.32      26.67
C      30.28      21.91      26.29
S      30.21      20.81      28.79
S      30.28      16.72      27.95
O      30.51      22.98      26.96
O      30.15      15.87      31.79
O      29.97      21.83      25.06
O      30.23      14.59      29.90
C      30.16      18.23      30.11
C      30.35      20.66      27.07
C      30.20      16.91      29.68
C      30.20      19.10      29.00
C      30.29      18.43      27.76
N      30.63      18.82      25.33
O      30.14      17.70      25.09
O      31.32      19.48      24.55
H      30.10      18.51      31.16
