26

O       9.46      19.33      13.09
O       4.07      17.51       3.11
O       4.33      15.42       3.96
H       7.87      21.71      10.34
H       6.72      20.89       8.31
C       8.93      20.24      12.35
H       7.12      16.84       9.77
C       8.14      19.75      11.18
H       8.24      17.69      11.78
H       6.23      20.16       6.55
C       7.69      20.64      10.20
C       7.05      20.17       9.06
H       5.20      19.26       4.49
C       6.83      18.79       8.86
H       5.08      15.34       6.25
C       7.25      17.91       9.88
H       6.07      16.21       8.32
C       7.89      18.38      11.02
C       6.21      18.27       7.62
C       5.97      19.10       6.51
C       5.39      18.60       5.34
C       5.06      17.25       5.24
C       5.32      16.40       6.33
C       5.88      16.90       7.50
C       4.44      16.70       4.00
O       9.02      21.49      12.53
