34

N       9.21       0.30       2.29
H      16.26       3.56       8.96
H      14.03       1.07      11.68
H      13.13      -0.20       9.77
H      11.59       0.07       8.14
H      10.27      -0.36       6.13
H      13.79       0.14       3.70
H      15.12       0.54       5.72
H      12.36       0.77       1.87
H      17.59       4.18      10.95
H      13.95       3.26      13.10
H       8.94      -0.47       4.23
H      15.37       2.30       7.06
C       9.64      -0.11       3.49
C      11.05       0.02       3.56
C      15.09       2.00       8.07
C      15.59       2.72       9.15
C      15.18       2.44      10.47
C      14.31       1.35      10.66
C      13.81       0.63       9.58
C      14.15       0.97       8.26
C      12.09       0.06       7.17
C      11.34      -0.18       6.03
C      11.90      -0.07       4.74
C      13.29       0.12       4.67
C      14.05       0.35       5.81
C      13.45       0.40       7.09
C      16.75       4.11      11.64
C      15.60       3.31      11.56
C      14.91       3.62      12.75
C      11.39       0.51       2.28
N      16.75       4.83      12.78
N      15.60       4.53      13.46
N      10.28       0.68       1.55
