44

N      14.81      10.00      16.22
N      11.47       7.45      16.34
H       1.47       1.97      16.63
H       3.35       3.64      16.72
H       6.07       0.36      16.00
H       4.09      -1.15      15.89
O       5.43       3.71      18.48
H       6.84       5.56      19.40
H       8.52       3.51      13.20
O       6.46       2.41      14.19
O      10.95       8.10      18.48
O      11.98       6.81      14.19
C      13.59      10.49      16.49
C      12.46       9.68      16.55
C      12.62       8.31      16.35
C      13.89       7.79      16.13
C      14.96       8.67      16.07
H      11.47      10.11      16.72
H      14.06       6.72      16.00
H      15.97       8.31      15.89
H      13.53      11.57      16.63
C      10.64       7.44      17.50
C       9.45       6.57      17.44
C       8.60       6.51      18.54
H       8.82       7.14      19.40
H      10.45       5.04      13.20
C       9.20       5.77      16.30
C      11.23       6.71      15.16
C      10.05       5.82      15.17
C       9.79       5.02      14.06
C       2.51       1.66      16.49
C       3.55       2.59      16.55
C       4.85       2.12      16.35
C       5.07       0.77      16.13
C       3.97      -0.08      16.07
C       6.14       3.85      17.50
C       7.25       4.82      17.44
C       7.50       5.63      18.54
C       8.09       4.89      16.30
C       7.85       4.07      15.17
C       8.69       4.15      14.06
C       6.72       3.12      15.16
N       2.71       0.36      16.22
N       5.95       3.05      16.34
