20

C       9.54       4.38      12.15
H       8.10       4.49      10.42
H       4.02       0.89      19.92
N      11.31       4.60      10.75
N      10.17       4.63      10.00
H       7.91       1.95      21.50
C      10.95       4.43      12.03
C       4.91       1.04      20.52
C       6.90       1.58      21.33
N       4.98       0.62      21.79
C       6.12       1.67      20.16
N       6.22       0.96      22.30
Cl      12.08       4.21      13.28
C       9.11       4.51      10.81
C       8.82       4.15      13.33
C       8.30       3.87      14.40
C       7.76       3.51      15.58
C       7.31       3.13      16.66
C       6.86       2.67      17.84
C       6.49       2.22      18.92
