80

H       0.81       7.50      14.35
H       0.72      11.77      14.73
H       0.04       9.27      18.17
H       3.07      10.93       5.04
H       2.07       8.34       8.34
H       1.93      12.61       8.82
H       4.55      13.10       5.52
H       0.50      13.71       6.84
H       0.42      15.86       5.58
H       4.51      15.32       4.38
H       3.18       6.93       7.38
H       2.46       9.30       3.84
H       2.64       7.27       2.45
H       3.15       4.89       5.99
H       0.35      10.88      19.31
H      -0.13      13.26      15.74
H      -0.13      15.30      17.12
H       0.15      12.91      20.69
H      -0.96       5.94      15.77
H       1.93       7.67      18.45
H       2.07       5.51      19.69
H      -0.90       3.81      17.09
H       2.47       8.22      12.82
H      -0.29      11.52      12.68
H       0.25      11.87      10.30
H       3.01       8.57      10.44
C       0.45       8.26      16.34
C       0.67       8.39      14.96
C       0.75       9.66      14.37
C       0.58      10.79      15.19
C       0.31      10.69      16.56
C       0.25       9.41      17.11
C       2.48      11.90       6.86
C       2.77      10.78       6.08
C       2.62       9.48       6.59
C       2.24       9.34       7.93
C       2.01      10.45       8.76
C       2.10      11.73       8.20
C       0.75       3.27      19.23
C       2.80       4.67       3.36
C       2.32      16.94       4.06
C       0.14      15.50      19.77
C       3.65      13.72       5.55
C       2.53      13.25       6.25
C       1.38      14.07       6.30
C       1.33      15.27       5.61
C       2.46      15.72       4.90
C       3.63      14.96       4.91
C       3.03       7.02       6.30
C       2.79       8.28       5.73
C       2.67       8.35       4.32
C       2.75       7.20       3.53
C       2.90       5.95       4.13
C       3.04       5.87       5.52
C       0.20      11.84      18.81
C       0.15      11.90      17.41
C      -0.03      13.17      16.82
C      -0.06      14.32      17.59
C       0.01      14.24      18.99
C       0.10      12.98      19.60
C      -0.31       5.85      16.64
C       0.47       6.95      17.03
C       1.31       6.83      18.16
C       1.39       5.63      18.85
C       0.59       4.54      18.47
C      -0.27       4.66      17.37
C       1.96       9.01      12.27
C       1.04       9.84      12.93
C       0.45      10.88      12.19
C       0.75      11.08      10.85
C       1.67      10.25      10.18
C       2.26       9.21      10.92
O      -0.20       2.42      19.30
O       3.34       4.54       2.22
O       2.15       3.75       4.00
O       1.91       3.13      19.77
O       3.29      17.73       3.88
O      -0.38      15.63      20.92
O       0.84      16.40      19.16
O       1.15      17.07       3.54
