30

H      11.98      14.44       2.77
H      13.18      16.64       3.07
N      13.59      15.81       2.65
H      16.23      15.67       6.39
H      14.76      16.87       4.78
H      15.97      12.13       3.98
H      13.74      12.14       2.46
H      16.12      11.92       1.35
H      16.00      13.28      -0.86
H      13.56      14.31      -0.97
H      12.51      13.19       0.80
H      14.50      15.37       0.08
O      10.75      16.44       1.95
O      11.80      15.97      -0.02
O      17.77      12.13       5.74
O      17.06      13.46       7.45
C      11.64      15.86       1.23
C      12.59      14.95       2.00
C      14.47      15.15       3.51
C      15.02      15.82       4.62
C      15.84      15.16       5.51
C      16.19      13.82       5.28
C      15.68      13.17       4.15
C      14.81      13.80       3.27
C      14.25      13.04       2.07
C      15.35      12.65       1.10
C      15.29      13.36      -0.03
C      14.14      14.33      -0.04
C      13.29      13.87       1.17
C      17.07      13.09       6.22
