36

C       7.11       7.38       0.03
C       2.83       9.85       8.19
H       7.99       6.79      -0.22
H       1.88      10.31       8.44
C       4.84       8.88       0.70
C       5.27       8.63       7.52
H       3.95       9.44       0.98
H       6.20       8.14       7.24
C       2.86       5.31       3.37
C       3.17       5.13       4.85
H       1.96       5.92       3.23
H       4.15       4.66       4.99
C       6.93       8.66      -0.46
C       4.03      10.33       8.68
H       2.66       4.32       2.95
H       2.41       4.46       5.27
C       5.79       9.43      -0.13
C       5.27       9.73       8.35
H       7.67       9.07      -1.15
H       4.02      11.18       9.37
C       3.95       7.08       2.06
C       4.15       6.96       6.16
H       5.67      10.43      -0.53
H       6.20      10.12       8.75
N       3.96       5.89       2.61
N       3.12       6.37       5.61
H       3.07       7.70       2.24
H       5.14       6.50       5.98
H       4.80       5.32       2.42
H       2.21       6.82       5.80
C       4.99       7.58       1.24
C       4.06       8.11       6.98
O       6.35       5.61       1.44
O       1.68       8.30       6.78
C       6.17       6.80       0.92
C       2.81       8.74       7.30
