16

O      26.21      12.49      25.39
C      27.28      11.79      25.45
C      26.98       5.40      29.36
O      25.89       4.86      29.77
S      25.64       9.98      26.76
S      28.50       7.24      28.07
H      24.84       7.24      28.46
O      28.17       4.95      29.53
C      28.24       9.70      26.61
Br      30.08       9.90      26.29
C      27.21      10.55      26.22
C      25.88       7.47      28.21
C      26.35       8.59      27.49
C      27.75       8.59      27.34
C      26.94       6.65      28.59
O      28.40      12.07      24.91
