16

C      12.69       7.58      12.11
C      13.26       8.86      12.25
O      16.73       7.62       9.88
Cl      12.93      11.35      13.32
Cl      13.02       5.09      11.04
O      15.68       5.59       9.72
O       9.22       8.83      14.49
C      11.28       9.11      13.44
S      11.17       7.45      12.91
S      14.77       8.98      11.45
C      10.17       9.65      14.25
O      10.26      10.86      14.62
C      12.45       9.74      13.01
C      13.49       6.70      11.35
C      15.77       6.80      10.11
C      14.66       7.33      10.92
