16

O       4.01       4.86       1.33
H       3.23       4.55       3.64
O       6.26       5.05       1.42
H       6.99       1.65       5.01
Cl       2.60       3.52       6.15
Cl       7.62       2.69       2.51
C       5.08       1.58       6.81
C       5.15       4.62       1.85
C       5.06       2.41       5.56
O       3.97       1.16       7.23
C       3.99       3.24       5.16
C       6.23       2.96       3.49
C       4.06       3.91       3.94
C       6.17       2.29       4.71
C       5.16       3.79       3.09
O       6.22       1.34       7.33
