66

H       2.20      -6.08      12.91
H       1.99      -1.79      12.88
H       2.41      -3.93       9.19
H       2.97      -7.67      11.90
H       1.67      -5.63       8.31
H       1.43      -5.99      14.79
H       2.73      -1.87      14.79
H       3.22      -0.32      11.76
H       1.19      -2.23       8.47
H       0.29      -9.03       6.80
H       4.38     -10.62       9.66
H       0.02      -5.51      18.46
H       4.11      -2.23      18.49
H       1.60       2.79      11.28
H       2.80      -0.27       6.01
C       2.18      -3.93      18.92
C       2.20       2.29       8.04
C       2.22     -10.24       8.06
C       2.14      -3.94      13.08
C       2.20      -5.14      12.36
C       2.26      -5.17      10.96
C       2.29      -3.94      10.27
C       2.20      -2.72      10.96
C       2.11      -2.73      12.36
C       2.67      -8.88      10.18
C       2.66      -7.65      10.85
C       2.30      -6.45      10.23
C       1.95      -6.52       8.88
C       1.93      -7.73       8.18
C       2.27      -8.94       8.82
C       1.74      -5.08      15.29
C       1.74      -5.10      16.69
C       2.13      -3.95      17.41
C       2.47      -2.79      16.68
C       2.45      -2.80      15.29
C       2.10      -3.94      14.56
C       2.75      -0.29      10.77
C       2.74       0.93      10.09
C       2.20       1.01       8.79
C       1.66      -0.16       8.22
C       1.65      -1.36       8.93
C       2.20      -1.45      10.22
C       1.65      -7.62       6.70
C       3.08     -10.05      11.03
C       1.32      -6.42      17.28
C       2.75      -1.46      17.32
C       3.34       2.08      10.83
C       1.06      -0.24       6.84
O       1.20     -10.99       8.23
O       1.20      -3.39      19.54
O       1.21       2.54       7.26
O       3.20     -10.51       7.28
O       3.19       3.09       8.21
O       3.20      -4.45      19.49
O       0.87      -8.57       6.15
O       2.15      -6.73       6.04
O       3.96     -10.93      10.50
O       2.65     -10.17      12.16
O       0.44      -6.39      18.31
O       1.75      -7.46      16.83
O       3.53      -1.44      18.42
O       2.26      -0.44      16.87
O       2.59       3.01      11.37
O       4.57       2.05      10.98
O       1.81      -0.24       5.78
O      -0.17      -0.38       6.80
