17

H      17.42       5.77      10.91
C      19.52       1.52       8.38
C      17.59       3.00       8.94
O      21.25       5.40      11.56
O      15.74       4.48       9.49
O      20.69       1.08       8.69
H      15.17       3.75       9.09
H      16.97       2.39       8.28
C      19.19       4.54      10.63
C      18.94       2.67       9.13
O      18.86       1.00       7.43
H      20.79       3.18      10.12
C      19.99       5.34      11.60
C      17.03       4.11       9.60
C      17.85       4.89      10.43
C      19.74       3.44       9.98
O      19.34       5.98      12.52
