12

C       9.61       9.60       7.38
C      10.16       8.80      11.25
O      11.36       8.56      11.57
C       8.89      10.50       2.30
O       9.12       8.62      11.98
C       9.14      10.06       3.64
C       9.30       9.89       4.85
O       7.69      10.73       1.99
O       9.92      10.66       1.55
C       9.77       9.43       8.70
C       9.47       9.73       6.17
C       9.93       9.25       9.91
