50

H       2.66      23.12      15.88
H       3.86      27.25      10.51
C       0.61      21.54      11.89
C       6.00      28.78      14.44
C      -0.62      23.44       9.11
C       7.18      26.90      17.24
Cl       5.07      25.52      19.30
Cl       1.47      24.88       7.06
H       1.11      21.21      12.81
H       5.39      29.02      15.31
H       5.51      29.11      13.51
H       6.98      29.27      14.52
Cl       0.68      23.53      14.67
Cl       5.87      26.78      11.68
O       2.51      22.54      18.60
O       4.02      27.83       7.78
H       1.24      21.32      11.01
H      -0.35      21.03      11.78
H      -0.74      24.30       8.43
H      -1.12      23.63      10.06
H      -1.03      22.54       8.64
H       7.68      26.69      16.29
H       7.29      26.04      17.92
H       7.60      27.79      17.71
O       4.77      22.47      18.68
O       1.76      27.94       7.72
O       0.31      22.95      11.95
O       6.27      27.36      14.40
O       0.78      23.16       9.34
O       5.78      27.20      17.00
C       3.67      22.97      18.30
C       2.86      27.42       8.09
C       2.72      26.27       9.03
C       3.80      24.11      17.35
C       1.55      24.24       9.68
C       5.00      26.12      16.67
C       1.93      25.15       8.70
C       4.60      25.23      17.67
C       3.26      26.37      10.30
C       3.27      24.00      16.08
C       2.99      25.43      11.31
C       3.55      24.93      15.06
C       2.01      24.42      11.03
C       4.54      25.93      15.33
C       3.57      25.52      12.64
C       2.97      24.83      13.73
C       1.80      24.04      13.44
C       4.75      26.29      12.92
C       1.41      23.74      12.14
C       5.15      26.59      14.21
