16

C       6.08      15.70       6.33
C       5.90      16.92       5.49
C       4.76      17.74       5.59
H       3.98      17.46       6.31
O       5.01      15.23       6.93
C       4.65      18.88       4.80
H       3.79      19.54       4.88
O       7.20      15.15       6.42
C       5.65      19.20       3.88
H       7.54      18.62       3.02
O       4.59      21.23       3.16
H       7.78      16.59       4.50
C       6.77      18.36       3.75
O       6.57      20.63       2.24
C       6.90      17.24       4.56
C       5.56      20.45       3.05
