13

C       8.16       1.34       2.05
O       7.37       2.21      -0.87
H       8.56       2.36       1.90
H      10.22       1.58       0.38
C       8.64       2.12      -0.98
O       6.29       2.15       3.32
H       9.72       0.31      -0.78
C       6.67       1.47       2.32
O       9.32       2.83      -1.79
H       8.65       0.97       2.96
C       9.35       1.09      -0.10
N       8.45       0.48       0.88
O       5.84       0.91       1.52
