32

H       6.26       8.99       1.93
H       6.15       9.12       4.43
H      10.46       9.19       4.56
H       6.16       9.13       8.80
H      10.36       8.91      11.42
H      10.47       9.08       8.93
N      10.85       8.99       1.99
N       5.76       8.88      11.37
O       9.35       8.98      13.62
O       7.13       8.55      13.60
H      10.86       9.09       0.98
H      11.63       9.38       2.51
O       7.27       9.10      -0.26
H       4.99       9.28      10.85
O       9.49       8.68      -0.25
H       5.76       8.96      12.38
C       8.25       8.80      13.01
C       8.37       8.92       0.35
C       8.39       8.99       1.83
C       7.17       9.03       2.53
C       7.10       9.10       3.91
C       8.31       9.16       4.65
C       9.53       9.14       3.98
C       9.61       9.05       2.58
C       8.29       9.20       6.07
C       8.32       9.19       7.29
C       8.30       9.12       8.70
C       7.08       9.08       9.38
C       7.01       8.96      10.78
C       8.22       8.89      11.52
C       9.44       8.95      10.83
C       9.51       9.05       9.45
