25

O      29.73      16.53       2.08
O      28.56      18.44       1.67
O      22.31      14.34       7.18
O      23.57      12.45       7.35
O      23.04      16.00       5.05
H      26.23      18.34       2.26
H      24.24      17.47       3.56
H      28.62      15.10       3.74
H      28.70      13.93       5.78
H      27.76      12.44       6.05
H      28.23      12.91       4.39
H      25.72      12.70       6.59
C      28.70      17.28       2.17
C      27.53      16.76       2.94
C      26.30      17.45       2.88
C      25.21      16.97       3.59
C      25.32      15.83       4.40
C      26.55      15.15       4.46
C      27.66      15.61       3.72
C      27.91      13.28       5.38
C      25.58      13.60       5.98
C      24.35      14.22       6.00
C      23.32      13.63       6.90
C      24.11      15.40       5.17
N      26.65      14.01       5.27
