76

N       7.34      11.93       2.93
N      12.50      13.25      -2.99
N       9.66      15.11       2.97
N      10.48       9.78      -2.93
N       4.62       9.57       2.71
N       5.64      15.28      -2.78
N       2.21      12.64       2.65
N       7.81      12.12      -3.00
H      10.06       8.87      -0.12
H       5.15       8.85      -0.07
N      10.49       8.08       2.71
N       9.68       2.54      -3.00
C       3.16       3.14       0.04
N       2.16       5.16      -2.71
N       7.84       5.65       2.86
N       4.65       8.11      -2.87
C      11.99       3.11      -0.20
O       1.97       3.58       0.01
C       3.17      14.58      -0.12
O       3.56       1.95       0.09
C       8.31       7.63      -0.11
C       6.90       7.63      -0.09
C       6.23       8.85      -0.08
C       6.89      10.09      -0.07
C       8.30      10.09      -0.08
C       8.97       8.87      -0.11
O      13.18       3.54      -0.23
O      11.58       1.92      -0.18
C      11.95      14.63       0.17
O       1.98      14.15      -0.10
O       3.57      15.78      -0.14
O      13.13      14.20       0.30
O      11.54      15.83       0.08
N       7.35       5.68      -3.04
C       9.15      11.31      -0.04
C      10.13      11.51      -1.04
C      10.98      12.64      -0.99
C      10.91      13.54       0.09
C       9.92      13.37       1.06
C       9.04      12.25       1.01
C      10.29      10.58      -2.10
C       9.78      14.32       2.12
C       8.11      12.07       2.06
C      11.85      12.92      -2.08
C       6.03      11.29      -0.05
C       6.14      12.31      -1.02
C       5.26      13.43      -1.00
C       4.22      13.50      -0.07
C       4.11      12.48       0.89
C       5.01      11.40       0.92
C       7.07      12.20      -2.10
C       3.07      12.56       1.87
C       4.83      10.40       1.92
C       5.44      14.46      -1.98
C      10.95       4.20      -0.16
C       9.95       4.32      -1.13
C       9.07       5.44      -1.12
C       9.17       6.42      -0.12
C      10.16       6.27       0.88
N       5.62       2.49       2.73
C      11.02       5.16       0.87
C       9.82       3.34      -2.16
C      10.31       7.25       1.91
C      11.91       4.95       1.97
N      12.58       4.72       2.90
C       8.13       5.57      -2.18
C       4.21       4.23      -0.01
C       6.05       6.42      -0.08
C       5.01       6.30      -1.04
C       4.09       5.24      -0.99
C       5.26       4.30       0.91
C       4.85       7.29      -2.07
C       3.04       5.19      -1.94
C       6.15       5.42       0.90
C       7.09       5.54       1.97
C       5.44       3.29       1.90
