28

O      -2.16       9.97       8.91
H      -2.26      20.93       9.27
H      -2.27      18.41       9.27
H       1.91      18.42       8.26
H       1.91      20.94       8.26
H      -3.17      14.72       9.17
H       1.01      14.72       8.15
H       1.01      12.21       8.15
H      -3.17      12.19       9.16
C      -1.06      10.57       8.71
C      -0.20      22.57       8.71
C      -0.18      21.08       8.74
C      -1.36      20.36       9.04
C      -1.37      18.98       9.04
C      -0.18      18.28       8.73
C       1.01      18.99       8.47
C       1.00      20.38       8.47
C      -2.26      14.15       8.95
C      -1.08      14.85       8.69
C       0.11      14.16       8.38
C       0.10      12.77       8.38
C      -1.08      12.06       8.68
C      -2.26      12.76       8.95
N      -0.07      16.87       8.68
N      -1.18      16.26       8.74
O       0.07      10.00       8.56
O       0.91      23.17       8.52
O      -1.33      23.13       8.86
