13

N       8.72       7.07       6.38
H       6.88       8.04       6.89
O       9.66       4.60       5.74
H       7.05       6.22       5.36
C       8.13       6.39       5.21
H       8.22       8.26       8.04
O       7.78       5.26       8.14
C       7.21       6.40       8.25
O       8.38       4.39       3.93
C       8.77       5.04       4.94
H       8.20       7.01       4.31
C       7.73       7.54       7.37
O       6.28       6.63       9.07
