52

C      10.58      -3.65      16.49
C      10.08      -4.82      17.14
C      10.17      -6.06      16.49
C      10.59      -6.12      15.14
C      11.01      -4.95      14.46
C      11.08      -3.73      15.15
C      10.59      -7.37      14.46
C      10.59      -8.45      13.87
H       8.95      -5.76      18.72
H       8.68      -4.02      18.57
H      10.16      -4.60      19.31
H      12.20      -2.91      13.50
H      12.49      -2.09      15.05
H      11.00      -1.78      14.18
H      10.96      -4.21      12.42
H      10.98      -5.98      12.57
H      12.46      -5.06      12.84
H      10.20      -7.37      18.22
H      10.21      -8.20      16.65
H       8.71      -7.49      17.26
C      10.97      -9.74      11.82
C      11.04     -10.98      11.17
H       8.83     -10.58      15.54
H      10.47      -9.98      15.82
H      10.14     -11.72      15.88
H      12.35      -8.19      11.19
H      10.86     -10.94       9.01
H      12.16     -11.97       9.59
H      12.35     -10.21       9.64
H      10.33     -13.89      14.39
H       9.02     -13.95      13.22
H       8.84     -12.96      14.68
H      10.71      -7.64      11.52
H      11.05      -8.53      10.03
C      10.59      -9.69      13.19
C      10.21     -10.87      13.89
C      10.14     -12.09      13.19
C       9.44      -4.80      18.51
C      11.72      -2.57      14.43
C      11.37      -5.05      13.00
C       9.80      -7.34      17.20
C       9.89     -10.79      15.35
C      11.29      -8.46      11.10
C      10.59     -12.14      11.85
C       9.55     -13.28      13.91
C      11.63     -11.03       9.78
O      10.82     -14.51      11.83
O      10.36     -13.44       9.87
C      10.59     -13.45      11.13
C      10.59      -2.34      17.21
O      10.20      -2.31      18.43
O      10.97      -1.29      16.57
