24

H      14.18       5.26       1.08
H      15.70       5.37       0.41
H      14.78      11.58      -1.08
H      13.25      11.47      -0.40
C      16.34       7.25      -1.80
C      14.96       8.24       1.27
C      13.99       8.60      -1.27
C      12.61       9.59       1.80
C      14.61       7.07       0.25
C      14.34       9.77      -0.25
C      13.28       7.81      -0.11
C      15.68       9.03       0.11
C      13.63       8.96       0.91
C      15.33       7.88      -0.91
N      14.73       5.66       0.32
N      14.23      11.18      -0.32
O      11.72      10.29       1.20
O      16.24       7.46      -3.05
O      12.71       9.38       3.05
O      17.23       6.55      -1.20
F      15.45       8.05       2.53
F      13.51       8.79      -2.53
F      12.06       7.21      -0.17
F      16.90       9.63       0.17
