15

C       0.82      12.79      12.61
C       1.56      12.32      11.44
C       2.57      13.10      10.87
C       3.29      12.58       9.79
C       2.05      10.61       9.82
C       1.30      11.06      10.89
N       0.22      13.97      14.24
N      -0.47      12.83      14.27
N      -0.11      12.06      13.26
N       1.03      13.98      13.21
N       3.04      11.36       9.28
H       2.81      14.08      11.27
H       4.11      13.14       9.34
H       1.93       9.62       9.37
H       0.51      10.43      11.31
