30

C      13.73       1.90       6.47
C      11.49       4.48       1.99
H       9.44       3.61       1.57
H      12.77       6.35       2.08
H      14.77       3.46       7.72
C      13.98       2.44       4.02
C      13.41       2.60       5.23
C      13.56       3.29       2.90
C      12.23       3.40       2.61
H      14.83       1.75       3.89
H      12.64       3.38       5.30
C      12.65      -0.47       6.13
H      12.46      -1.34       6.77
H      11.70      -0.10       5.73
H      13.25      -0.81       5.26
C      14.60       4.16       2.27
N      13.80       0.42       8.16
N       9.71       5.69       1.35
H      15.52       3.58       2.12
H      14.28       4.56       1.30
H      14.87       5.00       2.92
N      10.75       6.55       1.50
C      13.38       0.59       6.88
N      14.41       1.56       8.59
N      11.35       2.29       3.12
C      10.13       4.45       1.62
O      10.37       2.59       3.81
O      11.64       1.14       2.78
C      11.83       5.85       1.89
C      14.35       2.47       7.59
