36

C      -7.79       8.35      12.76
C      -9.16       8.57      12.55
H     -10.66       7.14       9.35
C      -7.73       7.23      10.58
O      -6.24       5.52       9.90
O      -7.07       6.93       8.32
H      -6.60      10.57      16.10
H      -5.07       9.77      15.71
H      -5.30      11.49      15.31
H      -5.57      10.09      13.23
H      -7.08      10.88      13.64
H      -7.83       8.81      14.86
H      -6.39       7.98      14.35
O     -10.85       8.64      14.22
O      -9.63      10.52      13.82
O      -9.70       6.97       9.29
H      -5.42       7.89      12.66
H     -13.95       8.66      12.04
O      -5.74       7.47      11.85
H     -13.98       8.05      10.38
H     -12.10       6.43      10.96
H     -12.08       7.05      12.61
H     -11.59       9.36      11.74
H     -11.48       8.74      10.12
H     -14.44       6.98      11.72
C      -6.96       6.51       9.52
C      -9.94       9.29      13.60
C      -7.10       8.77      14.04
C      -6.37      10.12      13.98
C      -5.80      10.51      15.35
C     -11.31       8.45      11.17
C     -12.29       7.33      11.56
C     -13.75       7.77      11.42
C      -9.11       7.46      10.42
C      -7.09       7.68      11.75
C      -9.85       8.15      11.39
