34

H      16.88      11.24       1.86
H      16.62      16.89      -2.35
H      18.06      17.67       0.44
H      19.16      16.34       0.07
H      18.51      17.35      -1.24
H      17.49      16.66       2.14
H      17.88      15.56       3.47
H      19.11      15.92       2.27
H      14.08      11.26       0.23
H      15.12      11.33      -1.21
H      15.63      10.40       0.21
H      13.28      13.09      -0.29
H      12.82      14.24      -1.56
H      13.54      12.71      -2.02
C      18.38      12.87       3.24
C      14.50      15.63      -3.20
C      17.50      14.58       1.59
C      16.76      12.26       1.48
C      15.87      12.51       0.46
C      15.84      13.83      -0.11
C      14.92      14.19      -1.15
C      16.37      16.10      -1.65
C      17.10      15.94      -0.49
C      16.81      14.80       0.35
C      17.53      13.28       2.09
C      15.25      15.28      -1.96
C      18.27      16.87      -0.28
C      18.03      15.74       2.40
C      15.13      11.32      -0.11
C      13.58      13.51      -1.26
O      19.29      13.67       3.66
O      13.69      14.77      -3.69
O      18.16      11.71       3.75
O      14.73      16.78      -3.71
