42

H       6.39       6.03       5.41
H       2.88       4.20      -5.57
H       3.02       3.83      -3.10
H       7.81       7.14      -4.46
H       9.08       9.12      -5.22
H       7.94      10.90      -6.56
H       5.53      10.65      -7.13
H       4.28       8.64      -6.42
H       6.51       6.01       2.90
H       2.48       4.52       2.72
H       2.34       4.61       5.23
H       5.91       7.00      -2.83
C       4.50       5.38      -2.82
C       4.32       5.25       6.95
C       4.27       5.84      -7.09
C       4.37       5.30       5.46
C       5.54       5.71       4.80
C       5.61       5.70       3.42
C       4.51       5.25       2.66
C       3.32       4.87       3.32
C       3.25       4.91       4.70
C       4.62       5.17      -1.38
C       5.95       7.75      -5.38
C       7.31       7.91      -5.05
C       8.03       9.02      -5.49
C       7.39      10.01      -6.24
C       6.04       9.87      -6.57
C       5.33       8.74      -6.16
C       4.62       5.12       1.21
C       5.26       6.38      -3.45
C       5.18       6.62      -4.82
C       4.31       5.80      -5.59
C       3.53       4.82      -4.96
C       3.61       4.60      -3.59
N       3.73       4.33       0.56
N       3.72       4.37      -0.76
N       5.70       5.69      -0.73
N       5.68       5.68       0.58
O       5.43       5.20       7.57
O       3.16       5.26       7.48
O       5.40       5.97      -7.67
O       3.14       5.69      -7.65
