10

H      11.63      16.22      13.87
O      14.86      17.45      15.53
H      11.71      17.43      15.99
O      13.62      15.62      15.73
C      12.47      17.69      15.23
O      12.78      19.07      15.29
C      13.73      16.87      15.53
H      11.08      17.91      13.60
C      11.94      17.27      13.86
H      12.72      17.42      13.09
