16

C      15.14       3.31       4.91
C      13.23       2.12       3.20
C      15.28       3.40       3.51
C      13.08       2.03       4.59
C      14.33       2.81       2.67
C      14.02       2.62       5.42
C      12.24       1.50       2.27
O      11.26       0.89       2.80
O      15.82       3.75       7.14
O      12.46       1.63       1.02
C      16.10       3.91       5.90
O      17.11       4.52       5.44
Cl      16.57       4.21       2.70
H      12.22       1.50       5.00
H      14.45       2.88       1.59
H      13.92       2.56       6.50
