36

C      18.04       9.96       0.84
C      16.65      11.69      -0.85
C      18.04      11.69      -0.84
C      18.76      10.83      -0.00
C      20.24      10.83      -0.00
C      20.96      12.03      -0.01
C      20.96       9.62       0.01
C      27.36      10.83       0.00
C      26.65       9.96      -0.85
C      25.26       9.96      -0.84
C      26.65      11.69       0.85
C      25.26      11.69       0.84
C      24.54      10.83      -0.00
C      23.07      10.83      -0.00
C      22.35       9.62      -0.01
C      22.35      12.03       0.01
H      16.09       9.30       1.51
H      18.59       9.30       1.52
H      16.09      12.35      -1.51
H      18.59      12.35      -1.52
H      20.41      12.98      -0.00
H      20.41       8.67       0.00
H      27.21       9.30      -1.51
H      24.72       9.30      -1.52
H      27.21      12.35       1.51
H      24.72      12.35       1.52
H      22.89       8.67      -0.00
H      22.89      12.98       0.00
O      29.43      11.63       0.81
O      29.43      10.02      -0.81
O      13.87      10.02       0.81
O      13.87      11.63      -0.81
C      28.85      10.83      -0.00
C      14.45      10.83      -0.00
C      15.94      10.83      -0.00
C      16.65       9.96       0.85
