28

Br       7.21       2.51      10.03
Br       7.37       0.89       6.33
O       3.60       6.88      13.16
O       5.80       6.41      13.46
O       3.03      -1.01       1.91
O       5.27      -1.39       1.98
C       4.68       6.27      12.88
C       4.63       5.31      11.72
C       5.70       4.43      11.49
C       3.56       5.34      10.81
C       3.57       4.55       9.68
C       5.72       3.65      10.35
C       4.66       3.68       9.41
C       4.68       2.91       8.23
C       4.67       2.26       7.20
C       4.57       1.49       6.02
C       5.68       0.80       5.47
C       3.33       1.40       5.35
C       3.20       0.63       4.20
C       5.55       0.05       4.31
C       4.31      -0.04       3.67
C       4.19      -0.87       2.42
H       6.53       4.39      12.20
H       2.74       6.03      11.00
H       2.75       4.59       8.96
H       2.48       1.95       5.75
H       2.24       0.54       3.70
H       6.41      -0.48       3.89
