28

O      -5.49      -3.17      14.24
O      -4.36      -2.51      12.38
O       4.35       2.51      22.28
H       2.65       1.53      16.84
O       5.49       3.16      20.42
H      -0.48      -0.28      14.28
H       0.48       0.27      20.38
H      -2.65      -1.54      17.82
F       4.54       2.62      18.10
F       2.14       1.23      22.02
F      -2.14      -1.24      12.64
C      -4.52      -2.61      13.64
C       4.51       2.60      21.02
F      -4.54      -2.63      16.55
C       3.45       1.99      20.15
C       3.51       2.02      18.74
C       2.54       1.46      17.92
C       1.43       0.82      18.50
C       1.33       0.76      19.90
C       2.32       1.33      20.68
C       0.43       0.24      17.68
C      -0.43      -0.25      16.98
C      -1.43      -0.83      16.16
C      -1.33      -0.77      14.76
C      -2.32      -1.34      13.98
C      -3.46      -2.00      14.51
C      -3.51      -2.03      15.92
C      -2.54      -1.47      16.74
