42

H       2.19       9.98       3.58
H       2.15       7.54       4.39
H       2.69      11.33       1.54
H       3.56      11.43      -2.65
H       4.75      11.91      -4.78
H       6.40      13.81      -0.49
C       9.52      13.28      -3.90
H       6.89      10.90       2.34
H       7.51      14.43      -2.63
C       6.76       9.29       4.51
N       5.27      11.86       0.67
H       5.24       9.13       6.95
N       2.77       7.15       6.37
N       3.76       7.64       7.18
H       5.83      12.81      -6.84
N       7.92      12.81      -7.12
N       9.00      12.99      -6.30
N       4.42      11.93      -0.28
H       9.80      14.32      -3.65
H       9.08      12.83      -3.00
H      10.45      12.74      -4.13
H       6.58       8.23       4.73
H       7.68       9.36       3.91
H       6.94       9.79       5.47
C       8.56      13.19      -5.04
C       7.14      13.17      -5.03
C       2.83       7.79       5.19
C       3.88       8.73       5.20
C       6.28      13.13      -3.86
C       4.43       8.59       6.49
C       6.67      13.73      -2.64
C       6.05      13.41      -1.44
C       4.96      12.52      -1.44
C       4.43      12.08      -2.66
C       6.80      12.92      -6.38
C       5.10      12.36      -3.85
C       3.49      10.93       2.17
C       3.22      10.17       3.29
C       4.83      11.19       1.82
C       4.25       9.62       4.09
C       5.60       9.89       3.75
C       5.86      10.69       2.64
