20

H      23.30       2.75      20.50
H      20.29       7.04      19.42
H      21.18       7.65      20.84
H      23.01       8.50      19.33
H      22.12       7.91      17.91
Cl      25.53       3.12      18.96
C      25.23       6.16      17.83
O      26.25       5.46      17.52
O      25.00       7.36      17.44
C      21.06       3.99      21.37
O      21.22       2.80      21.78
O      20.10       4.78      21.64
C      22.12       4.54      20.47
C      24.21       5.56      18.72
C      22.07       5.83      19.94
C      24.24       4.24      19.27
C      23.08       6.30      19.10
C      23.23       3.76      20.11
C      21.29       7.12      19.88
C      22.43       7.66      18.93
