29

H       5.03       7.47       8.37
H       5.86       9.57       7.32
H       2.31      11.63       8.60
H       1.47       9.53       9.67
H       1.63       8.43      12.24
H       2.56       8.96      14.47
H       6.14       6.78      13.53
H       5.20       6.20      11.28
C       4.46       8.39       8.44
C       4.91       9.57       7.85
C       4.16      10.74       7.93
C       2.91      10.72       8.57
C       2.44       9.56       9.17
C       3.24       8.41       9.11
C       3.37       7.29      11.64
C       2.62       8.07      12.52
C       3.15       8.37      13.78
C       4.42       7.90      14.14
C       5.15       7.12      13.23
C       4.64       6.80      11.98
C       4.69      12.03       7.36
C       5.03       8.21      15.49
S       2.75       6.97      10.01
O       5.80      12.00       6.75
O       3.98      13.08       7.57
O       4.29       8.83      16.34
O       6.22       7.84      15.71
O       3.46       5.81       9.48
O       1.30       6.92      10.09
