28

C      10.76      -2.03      11.01
C      10.74      -2.52      13.38
C      10.78      -2.27      14.74
C      10.77      -3.47      15.63
C      10.82      -0.89      15.22
C      10.79       0.12      14.12
C      10.80       1.48      14.48
C      10.77       2.48      13.53
C      10.76       2.13      12.16
C      10.76       0.79      11.77
C      10.76      -0.22      12.75
C      10.74       3.23      11.14
N      10.73      -1.58      12.41
O      10.84      -3.28      16.88
O      10.70      -4.61      15.03
O      10.87      -0.53      16.40
O      10.77       2.90       9.90
O      10.68       4.41      11.61
H      12.67      -1.11      10.47
H      12.16      -2.46       9.42
H      12.79      -2.79      11.04
H      10.30      -3.02      10.99
H      10.13      -1.36      10.41
H      10.71      -3.55      13.04
H      10.82       1.70      15.55
H      10.77       3.53      13.80
H      10.76       0.57      10.71
C      12.18      -2.10      10.45
