36

C       7.12       7.45      16.44
H       1.94      10.35       8.00
C       5.33       8.68       8.93
H       8.00       6.86      16.69
C       4.86       8.96      15.77
H       6.26       8.20       9.20
C       4.09      10.38       7.75
H       3.97       9.52      15.49
C       6.94       8.73      16.94
H       4.07      11.23       7.07
C       5.32       9.78       8.09
H       7.69       9.14      17.62
C       5.81       9.50      16.60
H       6.26      10.17       7.69
C       4.21       7.01      10.29
H       5.68      10.51      17.00
C       3.97       7.16      14.40
H       5.19       6.56      10.48
H       3.09       7.78      14.21
C       3.22       5.20      11.60
C       2.89       5.39      13.09
H       4.20       4.73      11.48
N       3.18       6.43      10.84
H       2.00       6.00      13.21
N       3.98       5.97      13.85
H       2.46       4.52      11.18
H       2.68       4.40      13.51
H       2.27       6.88      10.63
O       1.74       8.34       9.65
H       4.83       5.40      14.06
O       6.35       5.68      15.04
C       4.13       8.17       9.46
C       5.01       7.66      15.23
C       2.87       8.79       9.14
C       6.18       6.88      15.55
C       2.89       9.89       8.25
