22

Br       1.80      10.19      27.55
Br       1.80       7.37      22.53
Br      -2.03      10.93      27.00
Br      -2.01       6.56      23.25
N       4.70       8.56      25.15
N      -4.93       8.60      25.28
H       4.64       7.58      23.32
H       4.64       9.59      26.96
H      -4.85       7.03      23.92
H      -4.87      10.18      26.62
C       4.04       8.05      24.10
C       2.65       8.13      24.02
C       1.91       8.75      25.05
C       2.65       9.31      26.11
C       4.04       9.19      26.14
C       0.50       8.79      25.03
C      -0.72       8.79      25.07
C      -2.12       8.74      25.13
C      -2.87       7.79      24.38
C      -4.26       7.75      24.48
C      -4.27       9.52      26.00
C      -2.88       9.61      25.95
