16

O      12.26       7.17       7.94
O       7.57      12.75       8.57
C       8.40       9.45       9.74
C       9.41       8.44       9.73
C       8.49      10.71       9.21
C      10.35       8.22       8.76
O       6.24      11.29       9.73
H       9.42       7.72      10.55
H       7.47       9.24      10.26
C      11.42       7.20       8.92
C       7.34      11.64       9.18
O       9.64      11.22       8.70
O      10.37       8.87       7.58
O      11.45       6.47       9.96
H       9.39      12.11       8.37
H      11.16       8.52       7.11
