50

H      11.88      13.34      14.61
H      10.29       6.79      16.53
H       9.56       6.03      11.80
H      11.72      14.36      19.35
H      11.05      11.53      13.23
H      10.40       8.76      17.93
H       8.76      11.95      13.93
H       7.24      11.01      17.73
H      13.54      16.27      17.77
H       8.55       3.88      13.45
C      10.48      12.50      20.78
C       9.25       8.22      10.39
C      11.17      12.51      16.50
C       9.98       7.87      14.66
C      10.33      10.19      16.29
C      10.33      10.31      14.88
C      10.90      11.49      14.31
C      10.28       8.88      16.86
C      11.36      12.51      15.09
C      10.21       7.77      16.07
C      10.64      12.51      19.28
C       9.42       8.16      11.89
C      11.58      13.59      17.34
C       9.80       6.74      13.82
C      11.38      13.56      18.70
C       9.61       6.89      12.46
C      10.15      11.48      18.47
C       9.48       9.29      12.72
C      10.54      11.37      17.10
C       9.93       9.18      14.07
S       8.64      10.79      12.13
S       8.75      10.55      19.17
S      12.31      15.03      16.57
S       9.93       5.10      14.52
O      10.28      13.60      21.36
O       8.95       7.14       9.80
O      10.66      11.36      21.32
O       9.51       9.34       9.84
O       9.56      11.75      11.56
O       7.45      10.38      11.43
O       8.05      11.42      13.49
O       9.11       9.26      19.67
O       8.00      11.49      19.97
O       7.86      10.26      17.85
O      13.58      14.69      15.97
O      11.29      15.66      15.78
O      12.61      15.96      17.85
O      11.31       4.83      14.76
O       8.94       4.95      15.57
O       9.47       4.16      13.29
