30

C       1.98      -5.60      11.50
C       1.98       5.60       5.36
F       1.95       5.51       8.22
F       1.98       3.35       9.63
F       2.00       3.01       4.20
F       1.97       0.80       5.50
F       1.97      -0.80      11.36
F       2.00      -3.01      12.66
F       1.98      -3.35       7.23
F       1.95      -5.51       8.64
F       1.98       1.01       9.87
F       1.98      -1.01       6.99
C       1.97       4.34       6.16
C       2.00       3.09       5.54
C       1.99       1.90       6.27
C       1.98       1.86       7.69
C       1.97       3.16       8.29
C       1.95       4.34       7.55
C       1.98       0.67       8.56
C       1.98      -0.67       8.30
C       1.97      -3.16       8.56
C       1.98      -1.86       9.17
C       1.99      -1.90      10.59
C       2.00      -3.09      11.31
C       1.97      -4.34      10.70
C       1.95      -4.34       9.31
O       1.05      -6.44      11.29
O       2.93      -5.73      12.34
O       1.05       6.44       5.57
O       2.93       5.73       4.51
