48

H       5.25       6.86      15.27
H       5.27       9.03      14.10
C       6.70       6.13      17.42
C       6.64       7.48      16.80
C       5.86       7.68      15.65
C       5.87       8.90      14.99
H       8.03       8.37      18.18
C       7.43       9.76      16.64
C       7.42       8.54      17.29
C       6.66       9.96      15.47
C       6.71      11.25      14.75
C       6.62      11.29      13.35
C       6.75      12.50      12.66
C       7.00      13.67      14.78
C       6.88      12.45      15.45
H       6.92      12.44      16.54
H       8.07      10.56      17.00
C       6.96      13.68      13.38
H       6.52      10.36      12.79
C       7.10      14.95      15.52
C       7.94      15.98      15.06
C       6.68      12.53      11.18
C       5.61      11.92      10.50
H       7.01      14.63      12.84
C       6.33      15.17      16.67
C       7.97      17.20      15.71
C       7.69      13.17      10.44
C       6.35      16.40      17.32
C       7.11      18.80      17.42
C       7.64      13.18       9.05
C       6.57      12.58       8.38
C       5.54      11.97       9.11
C       6.54      12.58       6.89
H       8.57      15.81      14.18
H       8.61      18.01      15.35
H       5.72      16.58      18.19
H       5.67      14.38      17.03
H       4.82      11.44      11.07
H       4.70      11.51       8.59
H       8.44      13.64       8.47
O       7.57       5.96      18.35
O       5.90       5.24      16.97
H       8.52      13.64      10.96
O       5.42      12.29       6.33
O       7.63      12.87       6.29
O       6.25      19.00      18.35
O       7.91      19.67      16.94
C       7.17      17.43      16.83
