26

O      12.79       6.22      12.75
H      10.23       8.53       6.03
O      11.74       8.24      12.84
H       8.63       7.58       8.19
O       9.46       4.30       1.50
H      12.56       7.65       7.40
O       8.27       6.24       1.39
H      13.10       4.60       6.55
O      12.49       4.98       5.90
H      10.72       4.17       8.24
O       8.12       5.01       6.96
H       8.22       4.04       6.77
C      12.00       7.11      12.29
C      10.75       6.53       8.48
C      11.50       5.68       6.56
C      11.63       7.08       7.27
C       9.90       5.98       4.42
C      11.07       6.71       9.84
C       9.08       5.41       1.96
C       9.46       7.05       7.71
C      10.35       7.57       6.54
C       9.56       5.77       3.27
C      11.41       6.85      11.01
C       9.33       5.66       7.02
C      10.22       6.19       5.78
C      10.62       5.14       7.74
