38

C       3.36      24.71      27.74
C       3.35      26.61      29.86
H       5.50      27.74      31.11
O       4.43      30.87      34.64
H       1.21      23.64      26.44
O       2.28      20.42      23.00
H       1.18      27.72      31.09
H       5.53      23.56      26.54
O       2.17      30.81      34.65
O       4.54      20.48      22.98
H       1.18      29.34      32.94
H       5.53      21.93      24.70
O       5.75      29.48      32.95
H       1.46      25.71      30.40
H       5.25      25.62      27.20
O       0.96      21.92      24.59
H       1.47      24.07      28.57
H       5.24      27.26      29.02
H       5.54      30.14      33.67
H       1.15      21.25      23.87
C       3.29      30.45      34.18
C       3.42      20.85      23.45
C       4.55      29.04      32.51
C       2.15      22.32      25.06
C       4.54      28.09      31.48
C       2.17      23.26      26.09
C       3.34      27.60      30.96
C       3.37      23.73      26.64
C       2.13      28.07      31.50
C       4.58      23.24      26.12
C       2.12      28.99      32.53
C       4.58      22.31      25.09
C       3.32      29.49      33.07
C       3.38      21.83      24.54
C       2.29      25.71      29.69
C       4.42      25.62      27.91
C       2.29      24.78      28.65
C       4.42      26.55      28.94
