33

C      24.82      18.17      13.89
C      25.53      19.38      13.86
C      26.58      19.58      12.95
C      26.94      18.57      12.06
C      27.30      15.85      10.27
C      27.20      14.61       9.64
C      26.19      13.69      10.00
C      25.28      14.01      11.02
C      24.54      15.79      12.81
C      25.17      17.17      12.99
C      26.23      17.36      12.09
C      26.38      16.16      11.27
C      25.39      15.23      11.66
C      23.06      15.89      12.42
C      24.70      14.93      14.08
C      25.18      20.49      14.82
C      26.08      12.38       9.29
O      24.27      20.26      15.68
O      25.83      21.58      14.69
O      27.03      12.07       8.49
O      25.04      11.68       9.52
H      24.01      18.05      14.61
H      27.10      20.53      12.95
H      27.76      18.72      11.35
H      28.08      16.55       9.98
H      27.92      14.32       8.88
H      24.51      13.28      11.28
H      22.64      14.89      12.22
H      22.48      16.34      13.23
H      22.93      16.50      11.52
H      24.32      13.91      13.90
H      25.76      14.86      14.37
H      24.14      15.37      14.91
