30

O       0.85      10.58       1.23
O      -1.39       8.10      -4.48
O      -3.06       6.36      -4.15
O      -0.93       6.34      -2.80
S       2.01      11.12       0.57
S      -2.02       7.03      -3.44
N       4.79       8.85      -1.20
N      -4.83       8.93      -1.31
H       4.67       7.23      -2.48
H       2.15       7.22      -2.52
H       4.76      10.45       0.13
H      -4.78       7.53      -2.85
H      -4.72      10.32       0.21
H      -2.20      10.36       0.25
H       0.53      12.03      -0.68
H      -0.47       8.29      -4.21
C       4.08       7.96      -1.92
C       2.70       7.96      -1.94
C       2.00       8.94      -1.21
C       2.76       9.85      -0.44
C       4.15       9.77      -0.46
C       0.59       8.98      -1.27
C      -0.63       8.94      -1.36
C      -2.04       8.92      -1.36
C      -2.79       8.12      -2.25
C      -4.18       8.15      -2.19
C      -4.13       9.71      -0.47
C      -2.74       9.73      -0.46
O       1.49      12.16      -0.57
O       3.06      11.79       1.26
