38

H       5.32       4.73       4.22
H       8.99       6.06       6.69
H       7.64       6.06       3.98
H       9.12       5.23       4.51
H       7.20       2.63       6.53
H       5.25       3.70       5.66
H       9.41       2.45       6.95
H       9.81       3.99       6.46
H       5.14       6.84       4.39
H       6.15       7.68       5.44
H       8.88       7.96       5.15
H       8.32       8.29       6.65
H       9.14       4.16       8.42
H       8.26       5.44       9.13
C       6.70       8.59      10.09
C       5.62       5.81       6.08
C       8.11       6.33       6.10
C       8.09       5.49       4.81
C       7.40       2.53       2.98
C       6.87       5.92       6.99
C       5.77       4.56       5.21
C       7.27       4.20       5.05
C       7.77       3.55       6.39
C       7.30       4.50       7.57
C       7.41       3.27       3.94
C       6.71       6.86       8.07
C       6.70       7.66       8.99
C       7.37       1.65       1.84
N       9.17       3.20       6.32
N       5.38       7.00       5.36
N       8.11       7.77       5.80
N       8.23       4.57       8.60
O       5.57       9.02      10.49
O       7.84       8.87      10.58
O       8.48       1.38       1.28
O       6.21       1.23       1.49
F       4.45       5.58       6.94
F       6.09       3.89       8.08
