36

Br       9.84      11.18       3.38
Br       5.76       8.78       6.86
N       8.69      11.29       5.89
N       7.76      10.71       6.73
H       5.72       5.72      -7.23
N       3.63       5.49      -7.45
H       2.52       4.29      -4.67
N       2.63       5.04      -6.64
N       6.99       6.50      -0.71
N       6.51       6.12       0.40
H       7.31      10.32       2.12
H       6.91       8.77       0.21
H       7.88       6.99      -3.04
H       6.88       6.27      -5.20
H       7.09       6.98       4.85
H       5.17       4.43      -0.90
H       6.59       5.47       2.93
H       4.17       3.68      -3.05
C       8.60      10.67       4.71
C       7.14       9.75       6.03
C       7.63       9.66       4.71
C       4.79       5.40      -6.77
C       3.16       4.66      -5.47
C       4.55       4.89      -5.47
C       5.40       4.98      -4.29
C       4.99       4.41      -3.06
C       5.54       4.81      -1.86
C       6.55       5.79      -1.85
C       7.08       6.24      -3.07
C       6.52       5.84      -4.27
C       6.97       8.39       1.23
C       7.20       9.25       2.30
C       6.78       7.02       1.45
C       7.27       8.75       3.61
C       7.04       7.38       3.83
C       6.77       6.53       2.77
