26

C       1.68      15.15       5.82
H       0.85      13.06       4.24
C       2.51      12.81       2.90
C       1.79      13.53       3.92
H       4.38      13.77       3.06
H       3.13      15.12       4.23
C       3.82      12.98       2.56
C       2.22      14.64       4.59
H       6.50      13.96       2.40
H       7.79      13.19       1.63
N       1.66      16.27       7.80
N       5.35      10.37       0.46
N       6.41      11.25       0.64
N       0.70      15.27       7.85
H       3.30      17.26       5.21
H       3.31      17.94       6.75
N       6.79      13.38       1.62
H       3.33      10.37       1.07
N       3.25      17.08       6.21
H       0.04      13.77       6.53
H       1.96      11.99       2.42
C       2.23      16.22       6.58
C       4.27      10.90       1.08
C       5.97      12.30       1.36
C       0.71      14.61       6.68
C       4.60      12.13       1.69
