32

C       6.28      13.94       9.47
C       6.45      15.50       9.42
C       4.34      13.96       7.75
C       4.30      15.53       7.96
C       5.80      13.42       8.07
C       5.80      16.07       8.10
C       6.60      15.52       6.85
C       6.76      13.96       6.94
C       5.74      17.52       8.07
C       5.76      11.97       8.05
N       5.59      18.66       7.95
N       5.67      10.82       8.03
N       6.00      16.22      10.77
N       5.30      13.40      10.64
N       8.27      13.43       7.21
N       7.97      16.28       6.53
O       5.27      17.20      10.69
O       6.55      15.74      11.75
O       4.40      14.14      11.00
O       5.56      12.27      11.00
O       9.09      14.21       7.67
O       8.41      12.25       6.90
O       8.27      17.23       7.22
O       8.51      15.85       5.52
F       4.00      13.65       6.48
F       3.69      16.12       6.91
F       3.44      13.35       8.57
F       3.60      15.83       9.07
F       6.44      13.39       5.76
F       5.88      15.79       5.72
F       7.47      13.36       9.76
F       7.78      15.78       9.41
