19

H       8.69      -2.50      10.21
H       8.73      -0.42       8.81
H       9.75       2.84      12.62
H      11.13       1.88      13.23
H      11.20       2.69      11.65
H      10.31      -0.27      13.50
C       9.41      -2.70      12.83
C       9.47      -1.49      11.95
C       9.04      -1.55      10.62
C       9.07      -0.40       9.84
C       9.51       0.82      10.38
C       9.41       2.03       9.50
C       9.99       0.89      11.71
C      10.55       2.14      12.33
C       9.95      -0.28      12.47
O       9.64      -2.52      14.07
O       9.11      -3.81      12.27
O       9.49       1.84       8.24
O       9.22       3.15      10.08
