16

O      27.67      11.13      31.53
O      24.26       9.05      25.43
O      23.06       8.15      27.13
C      24.02       8.83      26.67
C      27.89      11.27      30.28
Cl      23.54       8.57      29.88
C      24.98       9.45      27.66
C      26.88      10.64      29.36
C      24.84       9.37      29.06
C      27.03      10.74      27.97
C      25.79       9.97      29.90
C      26.09      10.14      27.14
H      27.89      11.27      27.55
H      25.68       9.90      30.98
H      26.18      10.20      26.06
O      28.87      11.87      29.74
