28

O       3.85      21.53      16.83
H       3.18      15.81      17.38
H       4.06      17.86      13.66
F       3.13      17.90      18.79
F       4.10      20.17      14.67
H       3.18      11.93      15.25
H       4.05      13.98      11.53
F       3.13       9.62      14.24
F       4.10      11.88      10.12
C       3.62       9.30      11.38
C       3.62      20.49      17.53
C       3.62      19.17      16.81
C       3.37      17.94      17.46
C       3.37      16.72      16.81
C       3.62      16.67      15.43
C       3.86      17.86      14.73
C       3.86      19.06      15.42
C       3.62      15.43      14.75
C       3.62      14.36      14.16
C       3.62      13.12      13.48
C       3.37      11.93      14.18
C       3.37      10.72      13.50
C       3.62      10.61      12.11
C       3.86      11.85      11.45
C       3.86      13.07      12.10
O       3.38       8.26      12.08
O       3.85       9.33      10.13
O       3.38      20.46      18.78
