33

O      25.18      23.43       8.04
O      24.63      22.86      10.18
H      25.53      23.18      10.36
O      22.66      25.54       8.02
O      22.10      24.96       5.88
O      18.44      20.80       8.01
O      19.10      20.97       5.83
H      18.20      20.62       5.69
H      22.27      25.92       5.73
C      21.84      22.03       6.61
C      20.87      22.83       8.46
C      22.07      23.28       7.55
C      21.83      22.01      10.80
C      21.87      22.03       5.20
C      21.80      22.00      13.45
C      21.93      22.02       2.55
C      22.83      21.22       7.55
C      23.04      22.48       8.47
C      21.80      22.00      12.02
C      21.92      22.01       3.99
C      21.62      20.76       8.45
C      21.85      22.02       9.40
C      20.64      21.58       7.54
C      24.39      22.99       8.86
C      22.33      24.71       7.19
C      19.28      21.08       7.17
I      24.36      19.98       6.83
I      19.36      24.11       9.18
I      21.28      18.82       9.15
O      21.86      20.86      14.02
O      21.73      23.14      14.02
O      23.05      21.80       1.98
O      20.80      22.24       1.98
