28

H       4.86       5.88      22.82
H       5.62       1.80      24.11
H       5.17       1.68      17.34
H       9.28       1.03      18.58
H      10.68       7.30      19.47
H      10.83       6.91      23.79
C       4.88       4.92      23.32
C       5.66       3.77      23.03
C       5.26       2.82      23.98
C       6.20       1.35      17.48
C       7.17       1.80      18.38
C       8.31       1.03      18.09
C      10.92       7.36      20.53
C      10.32       6.68      21.61
C      10.98       7.17      22.75
N       8.10       4.27      20.59
N       4.33       3.35      24.78
N       4.09       4.65      24.36
N       8.04       0.19      17.08
N       6.73       0.40      16.68
N      11.91       8.07      22.37
N      11.86       8.20      21.00
N       9.18       5.09      20.57
N       9.30       5.74      21.65
N       8.10       3.38      19.56
N       7.01       2.76      19.37
N       7.05       4.58      21.50
N       6.68       3.54      22.12
