13

H       5.13      13.06       2.95
O       0.88      12.54       5.29
C       4.08      12.84       2.83
C       2.18      12.32       1.82
N       3.52      12.59       1.63
C       1.98      12.42       3.20
O       0.04      12.21       0.80
H       4.02      12.51       0.70
N       3.18      12.76       3.81
C       1.30      12.10       0.64
O       1.86      11.83      -0.46
C       0.82      12.14       4.08
O      -0.18      11.47       3.65
