13

C      -2.64       7.27      14.21
C      -3.00       8.50      13.41
C      -1.22       9.72      10.42
C      -2.48       9.42      11.22
O      -1.56       6.68      13.95
H      -4.04       8.42      13.05
H      -2.91       9.39      14.06
O      -3.49       6.96      15.11
H      -2.92      10.36      11.58
O      -1.38      10.61       9.52
O      -0.17       9.08      10.68
O      -2.10       8.59      12.32
H      -3.20       8.89      10.57
