16

F       1.90       7.38      12.69
C       5.48       8.12      12.88
C       5.52       8.83      14.07
C       4.33       9.06      14.78
H       6.39       7.92      12.32
H       6.46       9.21      14.47
H       2.19       8.74      14.84
C       3.12       8.57      14.29
C       3.11       7.86      13.10
C       4.27       7.62      12.36
C       4.35       9.82      16.07
O       3.18       6.64      10.49
C       4.30       6.88      11.06
O       5.44       6.56      10.60
O       3.22      10.07      16.60
O       5.49      10.13      16.54
