33

N       1.92      12.91      47.86
N      -0.10      12.02      48.13
N       2.77      14.15      45.84
N       1.80      15.61      44.47
B       3.19      13.42      47.14
H       5.90      13.39      48.17
H       2.41      15.71      48.78
H       4.46      16.66      50.41
H       2.92      10.54      47.50
H       6.58      10.59      45.40
H       5.70      13.19      45.67
H       0.50      12.76      46.22
H       2.63      12.65      49.89
H       0.10      11.56      50.24
H       2.43      16.19      46.45
H       1.49      14.28      42.81
H       2.73      12.45      44.50
C       5.24      14.17      48.54
C       3.45      15.40      48.86
C       4.45      15.86      49.67
C       3.79      10.92      46.96
C       5.67      10.96      45.85
C       5.26      12.26      46.01
C       0.74      12.58      47.27
C       1.82      12.51      49.19
C       0.57      11.97      49.35
C       2.33      15.43      45.68
C       1.89      14.40      43.81
C       2.48      13.49      44.65
N       3.96      14.33      48.13
N       5.57      15.08      49.46
N       4.07      12.22      46.73
N       4.73      10.13      46.44
