48

Br       3.61      31.34      14.74
O       1.40      33.39      11.51
O       3.33      33.40      12.67
O       1.48      22.18      19.17
O       3.41      21.16      18.58
O       1.01      21.18       5.60
O       2.93      22.19       4.99
H       2.32      23.07      12.08
H       2.42      26.79       9.94
H       2.32      26.79      14.23
H       1.46      22.30      13.81
H       3.35      25.70      15.72
H       3.14      22.28      10.32
H       1.27      25.72       8.50
H       1.38      28.64      10.17
H       3.38      28.64      13.99
C       2.37      32.81      12.09
C       2.44      21.95      18.38
C       1.98      21.96       5.80
C       2.31      24.84      10.86
C       2.34      24.16      12.09
C       2.38      24.84      13.31
C       2.37      26.25      13.29
C       2.38      26.96      12.08
C       2.37      26.24      10.88
C       1.95      22.10      15.89
C       1.91      22.80      14.68
C       2.40      24.11      14.59
C       2.92      24.70      15.75
C       2.90      24.01      16.96
C       2.43      22.70      17.06
C       2.67      22.78       9.48
C       2.55      22.09       8.28
C       2.04      22.70       7.12
C       1.61      24.03       7.24
C       1.67      24.71       8.45
C       2.23      24.11       9.58
C       1.84      29.16      11.01
C       1.84      30.55      11.01
C       2.37      31.31      12.09
C       2.91      30.55      13.16
C       2.92      29.16      13.15
C       2.38      28.44      12.08
Br       3.54      24.91      18.51
Br       1.34      20.31      15.91
Br       3.10      20.27       8.23
Br       0.91      24.94       5.73
Br       1.14      31.34       9.43
