23

C       3.44       5.72      12.61
O       1.39       0.30      16.87
C       2.82       1.95      16.02
O       3.96       6.65      11.91
H       5.31       4.61      17.51
C       4.89       6.32      14.59
O       3.36       0.55      17.94
H       1.91       2.54      15.85
C       4.17       3.92      15.83
H       3.10       1.45      15.07
C       6.21       7.05      16.62
H       5.16       7.25      14.09
C       3.69       4.20      14.55
H       6.24       6.83      17.70
C       4.05       5.41      13.94
H       7.24       7.02      16.24
C       5.35       6.05      15.89
H       5.83       8.07      16.49
C       2.53       0.86      17.04
H       3.02       3.54      14.02
O       2.42       5.03      12.30
C       4.98       4.85      16.50
O       3.88       2.76      16.50
