28

C      -6.39      12.36      10.52
H     -11.66      10.51       9.41
H      -9.18      14.13      11.76
C     -14.41      12.65      10.01
H      -9.18      10.41       9.57
H     -11.66      14.22      11.60
C      -5.03      12.52      10.24
C     -15.70      12.93       9.54
C     -11.11      11.29       9.93
C      -9.73      13.33      11.26
N     -17.57      12.90       8.25
N      -2.98      13.48       9.98
C      -9.73      11.24      10.02
C     -11.11      13.39      11.17
N      -2.98      12.29       9.27
N     -17.57      14.08       8.95
C     -11.83      12.38      10.48
C      -9.01      12.27      10.66
Cl     -16.09      10.68       7.97
Cl      -4.56      14.94      11.54
C     -16.47      12.21       8.61
C      -4.19      13.61      10.56
Cl      -4.56      10.22       8.74
Cl     -16.09      15.40      10.75
C      -4.19      11.72       9.44
C     -16.47      14.10       9.73
C     -13.23      12.50      10.28
C      -7.60      12.28      10.64
