28

C       6.78       1.63       5.17
C       6.09       1.10       3.87
C       6.55       2.84       8.43
C       2.91       0.63       2.12
C       4.93       2.07       9.63
C       1.25       0.17       3.41
H       1.87       0.10       6.06
H       2.99       0.80       8.06
H       7.08       2.68       5.10
H       6.55       0.19       3.45
N       6.69       3.36       9.65
N       1.81       0.63       1.36
N       5.65       2.86      10.42
N       0.75       0.32       2.19
C       5.44       1.98       8.31
C       2.65       0.37       3.48
F       7.90       0.89       5.59
F       6.06       2.08       2.85
F       7.43       3.20       7.49
F       4.10       0.87       1.55
F       3.84       1.47      10.14
F       0.41      -0.13       4.41
C       4.83       0.92       4.70
C       5.48       1.31       5.88
C       3.48       0.53       4.67
C       4.86       1.35       7.13
C       2.90       0.44       5.96
C       3.55       0.84       7.13
