35

C       4.58      25.23      11.90
C       5.87      25.49      12.37
C       9.06      30.52      13.68
C       7.07      29.87      14.89
C       3.89      26.22      11.19
C       7.19      29.54      12.49
C       6.45      26.74      12.15
C       4.47      27.46      10.97
C       6.47      29.08      11.20
C       6.49      29.44      13.70
C       8.48      30.09      12.49
C       7.46      28.85      10.01
C       5.49      30.23      10.81
C       5.76      27.74      11.45
H       6.42      24.72      12.90
H      10.06      30.95      13.67
H       6.52      29.80      15.83
H       2.89      26.00      10.81
O       2.81      23.71      11.56
O       8.38      30.67      17.24
H       7.45      26.93      12.52
H       3.91      28.20      10.41
H       5.49      29.02      13.72
O       4.56      23.06      12.85
O      10.13      31.45      16.03
H       9.04      30.20      11.57
F       4.46      30.32      11.70
F       8.02      29.99       9.53
F       4.93      30.07       9.57
F       8.48      28.02      10.38
F       6.83      28.25       8.96
F       6.11      31.43      10.80
C       3.94      23.90      12.12
C       9.01      30.88      16.14
C       8.36      30.41      14.89
