16

C      18.54       8.45       6.15
S      18.63      11.96       2.02
O      18.46       8.61       7.42
S      18.43      11.21       6.15
O      18.63       7.34       5.53
O      18.42      15.84       2.63
F      18.67       8.78       3.10
C      18.54      14.73       2.02
F      18.38      14.40       5.07
O      18.65      14.56       0.75
C      18.59       9.80       3.96
C      18.46      13.37       4.20
C      18.53       9.67       5.34
C      18.53      13.51       2.82
C      18.48      12.03       4.63
C      18.57      11.15       3.54
