30

H       1.98       5.75       1.45
H      -1.98      12.12      -1.45
H      -2.99       8.98       2.04
H       2.99       8.89      -2.04
H      -3.03      10.88       0.46
H       3.03       6.99      -0.46
H      -1.90       6.91       2.90
H       1.90      10.96      -2.90
C      -0.06      12.78      -3.22
C       0.06       5.10       3.22
C       1.13       6.43       1.40
C      -1.13      11.44      -1.40
C       0.04       6.23       2.25
C      -0.04      11.64      -2.25
C      -1.06       7.09       2.23
C       1.06      10.78      -2.23
C      -1.08       8.20       1.36
C       1.08       9.67      -1.36
C       0.01       8.39       0.46
C      -0.01       9.48      -0.46
C       1.12       7.48       0.47
C      -1.12      10.39      -0.47
C      -2.17       9.14       1.35
C       2.17       8.73      -1.35
C      -2.18      10.18       0.47
C       2.18       7.69      -0.47
O       1.07      13.19      -3.65
O      -1.07       4.69       3.65
O      -1.20      13.23      -3.56
O       1.20       4.64       3.56
