28

H      -0.42       5.01       0.99
H       3.83       4.95      -0.86
H      -0.34       6.01      -3.31
H      -0.39       5.94      -0.86
H       3.82       5.47       3.51
H       3.85       5.74       1.07
H      -0.53       4.86       4.49
H       3.96       5.23      -4.35
C       1.73       4.96       5.10
C       1.75       5.73      -4.95
C       1.70       5.17       3.65
C       1.76       5.60      -3.48
C       0.49       5.08       2.91
C       0.52       5.16       1.52
C       2.95       5.31      -2.76
C       2.91       5.22      -1.37
C       0.57       5.80      -2.76
C       0.54       5.74      -1.38
C       2.90       5.40       2.95
C       2.91       5.52       1.57
C       1.72       5.38       0.82
C       1.72       5.45      -0.65
O       0.58       4.93       5.71
O       0.65       5.97      -5.54
O       2.89       5.62      -5.55
O       2.85       4.80       5.69
O      -0.71       4.88       3.51
O       4.13       5.09      -3.37
