24

H       6.79       9.87      11.28
H       4.61      10.49      13.05
H       8.39       9.35      13.56
C       5.96       7.00      10.81
C       5.30       9.65      13.12
C       6.48       9.30      12.16
C       5.98       7.80      12.07
C       4.83       8.15      13.07
C       5.72       7.84      14.30
C       6.89       7.46      13.31
C       7.39       8.97      13.39
C       6.21       9.32      14.35
C       6.25      10.12      15.61
N       3.42       7.86      13.08
N       5.38       6.97      15.43
Cl       7.65       5.92      13.45
O       7.09       6.79      10.29
O       4.82       6.63      10.38
O       5.10      10.44      16.07
O       7.39      10.38      16.10
O       2.94       7.71      14.22
O       2.79       7.91      12.01
O       4.93       5.86      15.13
O       5.65       7.38      16.56
