21

H      19.65       1.62       4.80
H      18.75       8.77       3.54
H      19.60       7.59       2.50
H      17.86       7.44       2.75
H      19.00       4.97       2.17
C      19.35       2.24       2.21
C      19.33       3.20       3.36
C      19.51       2.69       4.67
C      19.37       4.76       5.57
C      19.16       7.21       5.75
C      19.14       8.55       6.37
C      19.04       6.83       4.43
C      18.80       7.72       3.25
C      19.17       5.40       4.31
C      19.14       4.57       3.17
S      19.40       5.89       6.87
N      19.54       3.44       5.76
O      19.57       1.02       2.51
O      19.17       2.72       1.04
O      19.11       9.59       5.64
O      19.19       8.54       7.65
