13

C       0.85      -1.19      10.88
O      -0.30      -4.58       8.00
N      -2.04      -2.46       8.85
C      -2.52      -1.48       9.61
O       1.78      -2.05      11.06
N      -1.55      -0.94      10.39
H      -3.55      -1.15       9.62
C      -0.70      -2.56       9.18
O       0.91      -0.00      11.31
H      -1.66      -0.23      11.15
C      -0.38      -1.60      10.15
C       0.18      -3.51       8.45
O       1.40      -3.16       8.23
