34

H      12.12       5.55       6.60
H      16.32       3.99       6.79
H      12.29       1.26       7.70
H      12.16       3.72       7.91
H      16.11       8.29       7.64
H      16.20       5.86       7.97
S      11.26       8.08       6.21
S      17.20       1.45       6.54
O      15.42      -0.88       6.97
O      13.02      10.42       6.72
H      11.48       9.90       5.03
O      13.16      -0.80       6.81
H      17.05      -0.35       5.29
O      15.28      10.35       6.68
C      14.32      -0.24       6.96
C      14.12       9.79       6.77
O      10.55       6.91       5.79
O      10.72       8.92       7.25
O      11.51       8.92       4.88
O      17.02       0.64       5.19
O      17.95       2.62       6.19
O      17.67       0.60       7.61
C      14.06       8.32       6.96
C      14.37       1.23       7.14
C      12.92       7.52       6.71
C      12.99       6.14       6.87
C      15.53       2.02       6.93
C      15.44       3.40       7.03
C      13.17       1.87       7.51
C      13.10       3.25       7.62
C      15.23       7.68       7.42
C      15.28       6.31       7.60
C      14.17       5.51       7.30
C      14.23       4.04       7.35
