50

H       1.12       6.02       1.27
H       7.26       3.26      -1.27
H       7.26       3.25       1.27
H       1.12       6.02      -1.27
C       4.19       4.64      -4.95
C       4.19       4.64       4.95
C       4.19       4.64      -9.26
C       4.19       4.64       9.26
C       3.71       3.51      -7.05
C       4.67       5.76       7.05
C       4.67       5.76      -7.05
C       3.71       3.52       7.05
C       4.19       4.64      -7.75
C       4.19       4.64       7.75
C       5.33       4.09       2.89
C       3.05       5.18      -2.89
C       3.05       5.18       2.89
C       5.33       4.09      -2.89
C       3.06       5.15       1.41
C       5.31       4.12      -1.41
C       5.31       4.12       1.41
C       3.06       5.15      -1.41
C       4.19       4.64       0.71
C       4.19       4.64      -0.71
C       1.97       5.63       0.70
C       6.41       3.64      -0.70
C       6.41       3.64       0.70
C       1.97       5.63      -0.70
C       3.69       3.52      -5.65
C       4.69       5.75       5.65
C       4.69       5.75      -5.65
C       3.69       3.52       5.65
I       2.94       1.90      -4.54
I       5.44       7.37       4.54
I       5.44       7.37      -4.54
I       2.94       1.90       4.54
I       3.07       1.83      -8.14
I       5.30       7.44       8.14
I       5.30       7.44      -8.14
I       3.07       1.83       8.14
N       4.19       4.64       3.52
N       4.19       4.64      -3.52
O       3.06       4.78      -9.83
O       5.32       4.49       9.83
O       3.06       4.78       9.83
O       5.31       4.49      -9.83
O       6.25       3.62       3.55
O       2.13       5.65      -3.55
O       2.13       5.65       3.55
O       6.25       3.62      -3.55
