26

H       1.89      14.68       8.79
H       4.86      17.53      10.43
H       5.60      15.29      10.87
H       1.15      15.42      10.95
H       6.59      13.38       9.61
H       0.16      17.46      11.97
O       5.42      11.93       7.88
O       1.33      19.69      12.36
O       2.99      11.65       6.63
O       3.76      20.92      11.97
O       1.39      13.15       7.12
O       5.36      19.74      10.93
C       4.81      12.94       8.50
C       1.94      18.65      11.80
C       3.45      13.32       8.28
C       3.30      18.65      11.35
C       2.92      14.41       9.00
C       3.83      17.48      10.78
C       3.67      15.14       9.92
C       3.09      16.32      10.60
C       5.00      14.75      10.14
C       1.75      16.33      11.05
C       5.55      13.68       9.45
C       1.20      17.45      11.63
C       2.56      12.66       7.29
C       4.19      19.84      11.43
