16

C       1.98      13.34       7.70
C       1.98       6.81       3.94
C       2.02      11.87       5.59
C       2.02       8.28       6.04
C       1.99      12.06       6.96
C       1.99       8.09       4.67
C       1.97       9.66       6.38
C       1.97      10.49       5.25
S       1.91      10.56       7.84
S       1.91       9.59       3.79
Cl       2.05      13.12       4.42
Cl       2.05       7.03       7.21
O       1.05      13.52       8.55
O       2.91      14.17       7.43
O       1.05       6.63       3.09
O       2.91       5.98       4.20
