40

H       8.69       9.73      12.08
H      10.39      11.85      16.07
H       8.47       9.10      16.07
H      12.87      10.24      11.33
H      19.41      12.39      14.49
H      15.66      10.38      10.23
H      12.60      12.47      16.86
H      16.63      12.61      12.60
C      12.02      10.44      11.98
C       9.66      10.10      12.41
C      14.89      12.49      15.50
C      15.81      12.41      13.27
C      10.57       9.41      10.22
C      15.02      12.78      16.97
C       9.83      10.66      13.66
C      10.78       9.98      11.58
C      15.98      12.60      14.65
C      14.59      12.00      12.75
C      13.47      11.72      13.60
C      13.62      12.09      14.98
C      12.19      11.14      13.20
C      11.07      11.20      14.10
C      11.24      11.76      15.40
C      12.48      12.12      15.83
S       8.35      10.67      14.65
S      17.57      13.09      15.31
S      14.57      12.13      10.94
O      11.58       8.95       9.58
O      15.39      13.96      17.28
O       9.37       9.45       9.78
O      14.72      11.83      17.76
O       8.01      12.05      14.98
O       7.36       9.82      14.05
O       8.80      10.02      16.06
O      17.66      14.53      15.35
O      17.82      12.33      16.52
O      18.48      12.53      14.14
O      13.26      12.57      10.54
O      15.74      12.85      10.55
O      14.71      10.62      10.42
