36

N      -0.59       8.24       7.03
N      -2.45       9.56       7.69
N      -2.65       8.10       5.83
N       0.59       5.22       3.22
N       0.99      10.87      11.07
N      -7.35       9.75       6.86
C      -1.35       7.79       6.01
C      -1.18       9.14       7.83
C      -3.16       8.96       6.73
C      -4.61       9.25       6.71
C      -5.11      10.28       7.51
C      -6.48      10.50       7.56
C      -6.88       8.76       6.08
C      -5.52       8.48       5.97
H      -4.43      10.89       8.12
C       0.62       6.46       5.27
C      -0.69       6.89       5.05
H      -6.92      11.27       8.20
H      -5.16       7.66       5.35
C       1.22       5.62       4.34
H      -7.63       8.17       5.55
C      -0.41       9.72       8.95
C      -1.07      10.51       9.90
C      -0.33      11.07      10.93
H      -2.14      10.69       9.83
C       0.97       9.49       9.11
C       1.62      10.08      10.19
H       1.52       8.90       8.38
H      -0.82      11.71      11.67
H       2.70       9.95      10.34
C      -1.36       6.44       3.90
C      -0.67       5.62       3.01
H      -1.15       5.27       2.09
H       2.24       5.25       4.47
H       1.17       6.80       6.14
H      -2.39       6.73       3.70
