48

H      11.95      10.66      16.39
H      12.26       7.05      22.79
H      11.95       7.26      25.26
H      13.39       9.78      20.59
H       8.71      10.30      21.11
H       8.71      12.07      20.90
H       8.32      11.36      22.48
H      10.70      12.26      22.41
H      11.04      11.21      21.05
H       7.92      10.77      24.64
H       8.61      10.37      26.22
H       8.09      12.02      25.89
H      10.57      11.87      25.76
H       9.89      12.30      24.19
H      13.30       9.61      18.12
H       9.51       7.59      18.39
H       9.61       7.74      20.86
H      10.47       6.62      16.45
H      10.06       6.74      14.00
H      11.50      10.78      13.94
C      10.46       8.84      12.35
C      11.65       8.07      24.60
C      11.82       7.96      23.22
C      11.42       8.99      22.38
C      10.86      10.18      22.92
C      10.67      10.29      24.31
C      11.08       9.22      25.14
C      12.53       9.30      20.11
C      12.48       9.21      18.72
C      11.38       8.62      18.07
C      10.38       8.05      18.87
C      10.43       8.15      20.26
C      10.94       9.25      26.64
C      11.49       8.80      20.90
C      10.69       7.54      15.91
C      10.46       7.60      14.54
C      10.74       8.77      13.83
C      11.29       9.87      14.50
C      11.54       9.80      15.87
C      11.23       8.64      16.60
C      10.45      11.29      21.97
C       8.96      11.25      21.60
C       9.97      11.49      24.92
C       8.57      11.14      25.45
O      10.50       9.99      11.80
O      10.22       7.74      11.77
O      11.34      10.30      27.25
O      10.47       8.21      27.19
