22

O       7.83      13.65       6.31
O       9.27      15.39       6.14
O       5.27      16.12      -0.03
O       4.13      17.06       1.70
H       7.79      17.15       4.90
H       7.97      12.32       4.49
H       7.24      10.72       2.80
H       5.93      11.48       0.81
H       5.40      13.88       0.53
H       6.32      17.87       3.01
C       8.28      14.68       5.70
C       7.41      12.68       3.63
C       6.99      11.78       2.68
C       6.26      12.21       1.56
C       5.96      13.54       1.41
C       6.39      14.50       2.36
C       7.14      14.07       3.51
C       7.61      15.06       4.43
C       7.39      16.41       4.20
C       6.58      16.82       3.13
C       6.08      15.89       2.23
C       5.09      16.39       1.22
