16

O       0.39       7.50      17.20
H      -2.90       9.34      12.84
H      -2.88       8.23      15.11
H       1.38       8.68      15.30
H       1.36       9.79      13.03
C      -0.78      10.31      11.49
C      -1.97       9.19      13.39
C      -1.96       8.59      14.64
O       0.36      10.53      10.95
C       0.46       8.83      14.74
C       0.45       9.44      13.49
C      -0.77       9.63      12.82
O      -1.91      10.60      10.99
C      -0.75       8.41      15.33
O      -1.88       7.59      17.23
C      -0.74       7.78      16.69
