52

H       1.56      -2.30      14.20
H      -0.72      -8.81      18.91
H       1.30      -1.63      22.40
H       0.27      -6.66      22.50
H      -1.22     -10.85      20.29
H       1.75       0.51      23.63
H       2.63       0.21      18.75
H       0.42      -6.45      14.28
H       1.53      -2.35      11.69
C       1.01      -4.42      10.08
C      -0.85     -11.21      22.89
C       2.74       2.75      22.74
C       1.32      -3.21      13.65
C       1.00      -4.37      14.38
C      -0.61      -8.80      19.99
C      -0.18      -7.62      20.62
C       1.95      -0.84      20.51
C       1.71      -0.76      21.89
C      -0.04      -7.59      22.02
C      -0.28      -8.73      22.78
C      -0.70      -9.92      22.15
C      -0.89      -9.92      20.76
C       1.97       0.42      22.56
C       2.52       1.53      21.90
C       2.77       1.44      20.52
C       2.47       0.27      19.83
C       0.68      -5.56      13.71
C       0.70      -5.59      12.32
C       1.00      -4.43      11.58
C       1.31      -3.25      12.26
C       1.38      -3.16      17.77
C       0.49      -5.43      17.81
C       0.97      -4.34      15.85
C       1.62      -2.08      19.78
C       0.86      -4.23      19.90
C       0.15      -6.41      19.85
N       0.91      -4.27      18.49
N       0.49      -5.44      16.48
N       1.43      -3.22      16.44
N       1.76      -2.07      18.44
N       1.19      -3.11      20.53
N       0.09      -6.50      18.51
N       0.50      -5.33      20.57
Cl       0.29      -7.06      11.50
Cl       3.39       2.78      19.62
Cl      -0.10      -8.60      24.49
O       3.73       3.51      22.53
O       1.94      -5.04       9.49
O       0.04     -11.46      23.76
O       1.88       2.93      23.67
O      -1.82     -11.98      22.59
O       0.08      -3.76       9.52
