15

N      20.39      18.05      15.09
N      20.78      19.22      16.88
C      19.23      13.88      15.05
N      20.39      18.05      17.33
N      20.78      19.22      15.54
C      19.72      15.93      16.21
H      19.66      15.74      18.37
C      19.53      15.23      15.01
H      19.66      15.74      14.05
N      19.10      13.21      16.21
C      19.53      15.23      17.41
H      19.11      13.30      18.28
C      20.15      17.33      16.21
H      19.11      13.30      14.14
C      19.23      13.88      17.37
