23

O       8.33       3.51       6.81
O       6.10       3.53       6.34
H       9.05       1.29       4.08
H       9.32      -1.16       4.07
H      10.28      -1.11       5.59
C       7.07      -2.91       6.26
C       8.15      -0.65       5.90
C       7.11      -1.42       6.42
C       6.09      -0.71       7.10
C       6.14       0.71       7.24
C       7.18       1.47       6.65
C       8.16       0.74       5.99
C       9.36       0.89       5.06
C       9.40      -0.70       5.06
C       7.20       2.97       6.62
C       5.14       1.38       8.00
C      10.55       1.61       5.48
C       4.95      -1.36       7.66
N       4.35       1.93       8.66
N      11.53       2.16       5.75
N       3.95      -1.76       8.12
O       8.17      -3.49       5.95
O       5.95      -3.46       6.45
