30

Cl      18.06       8.09      22.34
H      21.02       5.49      20.03
Cl      19.53      10.54      22.02
H      21.91       6.31      21.97
Cl      22.69       9.14      18.70
O      21.75       6.29      15.28
H      21.90       9.75      21.21
O      22.29       9.98      26.41
O      19.49       6.20      14.97
H      22.63       7.15      19.86
O      20.05      10.33      26.17
H      22.95       8.47      21.81
C      20.56       6.46      15.65
C      22.01       8.67      21.30
C      21.99       8.04      19.90
F      19.07       5.80      20.42
C      21.02       8.50      23.54
F      19.82       9.81      19.42
C      20.38       7.23      18.18
F      18.24       8.30      19.59
C      20.38       6.95      17.00
C      21.14       9.81      25.83
C      20.39       6.28      20.46
C      19.49       8.62      20.03
C      19.51       8.80      21.61
C      21.13       8.99      24.65
C      20.53       7.55      19.58
C      20.85       6.59      21.90
C      20.82       8.13      22.16
Cl      20.06       5.58      23.13
