50

O       8.54       1.15       7.11
H      10.31       2.86       7.99
H       9.99      -5.85      10.81
H      10.39       5.37       8.03
H       8.85       1.14      11.70
H       8.41      -1.39       7.47
H       7.90      -2.63      13.40
H       7.09      -2.60      11.81
H       7.13      -0.29      13.84
H       6.35      -0.23      12.25
O       8.81      -1.41      12.05
H       4.81      -2.13      12.93
H       4.66      -0.75      14.04
H       5.59      -2.18      14.53
H       7.60       2.50       5.93
H       7.04       2.52       7.62
H       6.49       0.29       5.58
H       5.96       0.27       7.27
H       4.57       2.35       6.88
H       4.09       1.04       5.78
H       5.10       2.38       5.18
H       6.82      -5.61       8.17
H       7.47       5.57      10.95
H       6.85      -3.11       8.21
H       7.30       3.07      11.08
H      10.16      -3.35      10.99
C       7.54      -5.06       8.77
C       8.09       4.93      10.32
C       7.57      -3.68       8.80
C       8.00       3.54      10.39
C       8.52      -3.02       9.61
C       8.79       2.76       9.53
C       9.40      -3.81      10.35
C       9.67       3.43       8.66
C       9.32      -5.19      10.26
C       9.71       4.81       8.67
C       8.70      -0.80      10.82
C       8.56       0.54       8.35
C       8.74       0.59      10.76
C       8.49      -0.85       8.41
C       8.70       1.29       9.54
C       8.57      -1.54       9.62
C       7.58      -1.97      12.58
C       6.62      -0.90      13.08
C       5.35      -1.53      13.68
C       7.32       1.86       6.78
C       6.17       0.93       6.42
C       4.92       1.72       6.04
N       8.40      -5.81       9.49
N       8.92       5.55       9.47
