62

H       9.21       7.27      18.74
H       9.12       9.01      28.78
H       5.28       8.58      16.04
H       5.32       7.31      31.46
C       7.33       8.01      14.47
C       7.29       8.11      33.05
C       7.27       6.85      26.68
C       7.14       9.22      20.83
C       6.95       9.34      26.63
C       7.07       6.72      20.88
C       7.02       9.29      25.15
C       7.14       6.77      22.36
C       7.08       8.05      24.47
C       7.08       8.02      23.04
C       7.16       6.83      25.20
C       7.04       9.23      22.31
C       6.98      10.46      24.41
C       7.21       5.60      23.11
C       6.96      10.43      23.00
C       7.19       5.63      24.51
C       8.35       7.56      18.15
C       8.29       8.63      29.37
C       8.43       7.56      16.75
C       8.36       8.65      30.77
C       7.33       7.95      15.97
C       7.29       8.15      31.54
C       6.15       8.30      16.63
C       6.16       7.68      30.88
C       6.06       8.30      18.02
C       6.08       7.66      29.49
C       7.17       7.93      18.79
C       7.16       8.14      28.73
N       7.18       8.12      27.29
N       7.18       7.96      20.23
N       6.99      11.80      25.07
N       7.35       4.27      22.45
N       6.85      11.74      22.29
N       7.22       4.32      25.22
N       4.77       8.67      18.62
N       4.84       7.16      28.88
Cl       9.92       7.02      16.07
Cl       9.77       9.33      31.48
O       6.22       7.74      13.91
O       8.37       7.79      33.62
O       8.41       8.34      13.90
O       6.17       8.36      33.60
O       7.45       5.85      27.36
O       7.22      10.24      20.16
O       6.71      10.36      27.26
O       6.93       5.68      20.25
O       8.09      12.19      25.47
O       5.92      12.41      25.08
O       8.48       3.99      22.04
O       6.35       3.56      22.44
O       7.89      12.40      22.24
O       5.73      12.05      21.90
O       8.31       3.76      25.27
O       6.13       3.90      25.63
O       4.56       8.34      19.80
O       3.96       9.27      17.91
O       4.62       7.43      27.69
O       4.07       6.52      29.61
