33

C       5.21       6.81       5.95
C       4.65       5.80       6.81
C       4.97       5.73       8.13
C       4.86       6.91       4.60
C       5.40       7.92       3.81
C       7.72       8.52       9.80
C       7.38       8.62       8.44
C       6.47       7.67       7.89
C       7.94       9.62       7.59
C       7.65       9.71       6.25
C       6.71       8.76       5.68
C       6.13       7.75       6.51
C       6.32       8.83       4.34
C       7.17       7.51      10.60
H       4.13       6.21       4.17
C       4.91       8.15       2.42
H       3.95       5.10       6.37
H       4.54       4.96       8.77
H       6.71       9.60       3.67
C       8.29      10.74       5.38
H       5.86       5.82      10.72
H       8.65      10.33       8.03
O       5.33       9.17       1.81
H       8.43       9.22      10.24
O       4.04       7.31       1.95
H       8.91      11.42       5.98
H       8.93      10.28       4.61
H       7.54      11.34       4.83
O       7.21       6.32      12.63
O       8.49       8.17      12.47
C       7.63       7.32      12.00
C       6.26       6.59      10.07
C       5.89       6.66       8.72
