17

C      18.49      14.70       2.00
H      18.65       9.00       2.14
O      18.56      14.55       0.73
O      18.43      15.81       2.64
O      18.59       7.31       5.50
O      18.41       8.61       7.38
C      18.55       9.75       3.89
C      18.43      13.36       4.18
C      18.49       9.64       5.28
C      18.49      13.47       2.80
C      18.45      12.01       4.58
S      18.40      11.18       6.09
S      18.58      11.94       1.98
C      18.50       8.43       6.11
O      18.62       8.68       3.06
C      18.53      11.11       3.49
H      18.37      14.23       4.83
