20

H       6.82       6.16       9.89
H       6.79       6.10      12.37
H       2.09       3.59      12.27
H       1.52       5.34       9.80
H       1.50       5.27      12.32
H       2.11       3.66       9.76
C       3.64       5.09      11.77
C       4.79       5.49       9.65
C       4.76       5.42      12.54
C       5.92       5.85      10.42
C       5.90       5.82      11.81
C       2.21       4.59      11.84
C       2.22       4.63      10.25
C       4.81       5.49       8.16
C       4.77       5.35      14.02
C       3.65       5.12      10.38
O       3.69       5.42       7.57
O       3.64       5.24      14.61
O       5.95       5.55       7.59
O       5.91       5.40      14.60
