28

H       5.53       9.32      24.26
H       0.50      12.23      26.80
H       4.81      13.29      29.07
H       1.21       8.13      22.10
H       4.76      11.71      27.11
H       1.26       9.72      24.06
H       5.48       7.74      22.29
H       0.56      13.82      28.77
C       3.32       6.94      20.90
C       2.70      14.55      30.21
C       3.35       7.86      22.08
C       2.68      13.63      29.04
C       2.15       8.41      22.58
C       3.87      13.05      28.56
C       2.17       9.28      23.66
C       3.85      12.18      27.48
C       3.41       9.61      24.25
C       2.62      11.89      26.86
C       4.60       9.05      23.76
C       1.43      12.48      27.32
C       4.57       8.18      22.68
C       1.46      13.35      28.40
N       3.56      10.49      25.35
N       2.47      11.01      25.76
O       2.18       6.62      20.42
O       3.84      14.81      30.73
O       4.45       6.56      20.45
O       1.57      14.99      30.61
