20

H      -7.58      11.53       5.96
H      -8.61      12.89       2.21
H      -7.19       7.98       4.45
H     -10.87      11.88       3.16
C      -9.21      11.54       4.45
C     -10.47      11.96       4.17
C      -8.36      11.02       3.37
C      -7.60       9.90       3.46
C     -11.44      12.44       5.19
C      -6.73       9.43       2.33
C      -8.68      11.66       5.85
C      -8.45      11.79       2.08
C      -7.70       8.95       4.61
O     -12.25      11.55       5.61
O     -11.44      13.69       5.44
O      -6.94       8.22       1.99
O      -5.86      10.23       1.88
O      -9.39      11.97       6.79
O      -8.42      11.28       0.97
O      -8.32       9.17       5.64
