34

H      14.45      15.27      11.84
H      15.83      16.55      12.18
H      15.83      15.49      17.61
C      13.11      13.17      10.88
C      18.06      19.24      18.99
C      17.75      18.86      17.57
C      13.48      13.45      12.31
C      18.35      19.00      15.22
C      18.59      19.32      16.54
C      16.70      18.00      17.22
C      16.58      17.46      15.91
C      17.34      18.08      14.84
C      15.78      16.29      15.60
C      15.47      15.98      14.26
C      16.06      16.76      13.22
C      17.00      17.73      13.49
C      15.45      15.34      16.60
C      14.72      14.21      16.34
C      14.26      13.92      15.01
C      14.65      14.83      13.96
C      13.49      12.79      14.64
C      13.14      12.55      13.32
C      14.21      14.57      12.64
I      17.83      18.64      11.77
I      14.40      12.99      18.04
I      15.08      17.87      18.60
O      13.68      12.17      10.34
O      18.40      20.44      19.22
O      12.28      13.97      10.35
O      17.99      18.29      19.83
F      12.42      11.44      13.03
F      19.16      19.57      14.31
F      19.65      20.10      16.82
F      13.06      11.90      15.56
