40

C       4.34       0.99      14.37
C       4.26       1.17      13.00
H       8.22      -0.50       9.78
C       6.50      -1.29      18.22
H       8.25      -2.12      16.35
C       5.43      -0.19      16.27
C       5.30       1.00      10.76
H       9.09      -1.94      11.65
H       9.10      -2.51      14.05
C       6.38       0.63       9.95
C       6.48      -0.96      16.78
C       5.39       0.15      14.92
C       5.28       0.67      12.12
C       6.37       1.22       8.59
H       3.40       2.52      11.75
H       1.24       1.62      11.62
H       1.64       0.46      12.90
H       4.50       1.59      10.31
H       2.36       0.27      11.27
C       7.46      -1.50      15.93
C       7.41      -0.18      10.44
H       2.70       2.03      14.54
H       2.85       2.71      16.86
C       7.39      -1.27      14.55
H       4.12       3.45      15.84
H       4.50       2.08      16.90
C       7.37      -0.61      11.78
H       4.64       0.11      16.95
N       3.14       1.88      12.49
N       3.35       1.56      15.18
C       8.35      -1.51      12.32
O       7.49       1.45       8.00
C       8.35      -1.83      13.64
O       5.41      -1.29      18.86
O       5.23       1.53       8.13
O       7.65      -1.61      18.72
C       2.05       1.00      12.04
C       3.73       2.50      16.25
C       6.37      -0.41      14.04
C       6.35      -0.12      12.65
