18

C      18.50       8.47       6.12
S      18.60      12.02       2.02
O      18.44       8.64       7.39
S      18.41      11.22       6.13
O      18.57       7.36       5.50
O      18.41      15.88       2.63
C      18.46      12.06       4.62
O      18.64       8.76       3.07
C      18.52      14.77       2.02
O      18.36      14.48       5.08
H      18.68       9.10       2.15
H      18.35      14.15       6.00
C      18.57       9.82       3.92
C      18.44      13.42       4.23
C      18.50       9.68       5.31
C      18.51      13.55       2.84
O      18.63      14.58       0.76
C      18.55      11.18       3.53
