16

C       8.46      12.85       4.48
C       8.89      10.25       3.66
C       7.56      12.24       3.61
F       8.19      14.13       4.84
C       9.78      10.85       4.53
C       6.75      10.32       2.24
F       9.16       8.97       3.31
O      11.55      12.01       6.26
O      10.42      13.98       6.25
O       5.78      11.07       1.90
H      10.65      10.30       4.89
O       6.95       9.12       1.87
H       6.70      12.80       3.25
C      10.60      12.77       5.90
C       9.59      12.17       4.96
C       7.75      10.92       3.18
