27

C      10.98       7.77       7.03
H       8.07       8.20       8.44
C       9.52       5.89       7.90
C       9.86       4.90       6.97
H      11.58      11.10       6.40
C       9.52       3.58       7.23
H      13.64      10.05       5.43
C       8.83       3.23       8.40
H      13.98       7.60       5.51
H      12.29       6.10       6.52
C       8.49       4.23       9.32
H      10.35       5.17       6.03
C       8.84       5.56       9.08
H       9.75       2.80       6.51
C       8.43       1.81       8.65
N       9.56       9.47       7.59
H       7.94       3.95      10.22
N       9.84       7.25       7.65
H       8.61       6.33       9.81
C       9.04       8.31       7.96
O       8.79       0.93       7.78
C      10.79       9.17       7.01
O       7.74       1.53       9.68
C      11.74      10.02       6.43
C      12.88       9.42       5.90
C      13.08       8.03       5.94
C      12.14       7.17       6.51
