16

C      10.17       9.42      19.16
O      10.32       9.22      22.80
H       9.04       7.42      21.69
C       8.79       7.03      19.58
C       9.23       7.77      20.67
O       9.04       7.00      15.94
C       9.76       8.67      18.07
H       9.96       9.01      17.06
C      10.47       9.74      21.62
H      10.71      10.36      19.02
C       8.66       6.61      17.12
O      11.03      10.86      21.43
H       8.25       6.10      19.72
O       7.97       5.57      17.31
C       9.94       8.96      20.47
C       9.07       7.46      18.27
