26

C       6.51       8.71       8.12
C       6.13       8.81       9.60
H      11.23       9.27       8.59
H      11.49       9.69       6.16
H       7.23       9.33       5.66
O       8.53      10.88       1.34
O      10.80      11.00       1.40
O      10.41       7.72      12.87
H       6.58       8.02      10.20
H       6.44       9.77      10.04
H       5.04       8.73       9.69
H       5.84       9.36       7.54
H       6.30       7.69       7.77
O       8.13       7.77      13.00
C       9.26       7.98      12.41
C       9.18       8.51      11.08
C      10.36       9.28       7.94
C      10.51       9.51       6.58
C       8.10       9.31       6.32
C       7.92       9.04       7.68
C       9.08       9.04       8.50
C       9.37       9.54       5.75
C       9.50       9.82       4.38
C       9.07       8.76       9.89
C       9.63      10.10       3.20
C       9.65      10.68       1.88
