13

C       2.39       1.54       9.66
O       3.97      -0.83      12.80
O       1.90      -1.33      13.49
C       0.26       1.00      10.39
N       1.05       1.67       9.53
C       0.76       0.20      11.41
H       0.09      -0.31      12.09
H       4.05       0.64      10.70
H       3.01       2.08       8.95
H      -0.81       1.11      10.23
C       2.14       0.07      11.56
C       2.70      -0.75      12.69
C       2.97       0.74      10.65
