30

O       5.70      -4.82      23.34
O       1.83      -0.70      20.13
O       5.56      -7.00      23.62
O       3.73       0.35      20.70
H       5.00      -7.46      25.99
H       1.98      -5.22      28.07
O       5.60      -2.72      25.71
H       2.02      -3.49      26.27
H       1.71      -2.99      21.12
H       2.08      -4.68      22.91
H       4.37      -0.28      23.14
O       2.54      -7.32      29.14
N       5.26      -5.83      23.93
C       4.34      -6.60      26.05
N       4.92      -1.82      25.19
C       3.48      -7.44      28.28
C       3.50      -6.44      27.16
C       2.66      -5.32      27.22
C       2.68      -4.36      26.21
C       3.54      -4.48      25.12
O       4.36      -8.35      28.33
C       4.35      -5.63      25.06
C       2.85      -0.56      20.88
C       3.03      -1.54      22.00
C       4.03      -2.19      24.09
C       2.37      -2.77      21.96
C       2.58      -3.72      22.96
C       3.44      -3.46      24.04
O       4.97      -0.62      25.52
C       3.85      -1.24      23.09
