27

C       7.11       4.31      20.01
C       8.44       4.59      20.63
C       8.81       5.92      20.91
C       9.32       3.54      20.94
H       8.13       6.73      20.65
C      10.53       3.80      21.57
H       9.03       2.52      20.69
C      10.02       6.18      21.55
C      10.85       5.12      21.90
H      11.22       3.00      21.85
H      10.30       7.20      21.82
C      11.91       5.33      23.99
C      10.70       5.08      24.65
H       9.78       4.93      24.09
C      13.09       5.52      24.72
H      14.02       5.71      24.18
C      13.06       5.45      26.10
H      13.98       5.58      26.67
C      10.68       5.02      26.04
H       9.75       4.82      26.57
C      11.86       5.20      26.78
C      11.81       5.16      28.27
O       6.35       5.30      19.78
O       6.85       3.09      19.76
O      12.02       5.39      22.61
O      10.71       5.06      28.88
O      12.94       5.26      28.89
