16

C       7.18       1.34       2.06
O       1.65       3.96       7.52
C       3.82       2.85       5.87
C       1.62       4.15       6.26
F       4.07       2.50       7.14
H       4.84       2.87       1.43
O       7.09       1.55       0.81
O       8.11       0.72       2.68
O       0.72       4.77       5.60
C       5.00       2.62       2.47
C       2.72       3.60       5.46
C       6.09       1.88       2.90
C       4.18       2.97       3.56
C       4.66       2.49       4.80
S       2.71       3.86       3.74
S       6.13       1.61       4.62
