14

C       8.33       1.96       1.83
C       3.76       3.93       5.27
C       5.53       2.51       4.38
C       4.65       3.51       4.17
H       5.47       2.01       5.35
C       6.49       1.98       3.44
H       6.58       0.89       3.40
C       7.36       2.68       2.69
H       7.43       3.77       2.73
H       4.55       4.02       3.21
O       8.14       0.73       1.61
O       9.32       2.65       1.35
O       3.97       3.47       6.43
O       2.81       4.77       4.98
