48

O       4.42       7.00      10.48
O       6.65       8.13      10.12
O       5.57       7.97      12.34
O       4.82      19.67      13.54
O       3.97      20.68      15.65
O       6.19      19.70      15.61
O       5.19      10.55      13.98
H       6.42       8.43      12.55
O       6.88      10.35      12.15
O       5.83      12.51      12.63
O       5.19      17.24      12.05
O       6.65      17.44      14.09
O       5.80      15.27      13.40
H       5.79      12.81      13.56
H       1.80      12.42      10.02
H       1.80      14.97      16.05
H       6.72      19.03      15.11
H       5.72      14.99      12.46
H       1.95      10.54       8.37
H       1.84      16.84      17.72
C       3.25      19.04      17.70
C       3.58       8.55       8.28
C       4.42       9.59      10.51
C       4.05      18.07      15.45
C       4.38      10.68      11.40
C       4.13      16.96      14.58
C       3.40      11.69      11.23
C       3.28      15.86      14.78
C       2.54      11.64      10.13
C       2.46      15.83      15.91
C       2.62      10.60       9.22
C       2.47      16.87      16.83
C       3.56       9.57       9.39
C       3.26      18.00      16.60
C       3.11      14.75      13.82
C       3.16      12.79      12.18
S       5.37       8.04      10.76
S       4.73      19.68      14.97
S       5.65      10.89      12.67
S       5.52      16.89      13.40
N       2.99      14.02      11.67
N       2.88      13.52      14.32
N       2.94      15.04      12.51
N       2.88      12.50      13.48
O       2.10      19.40      18.10
O       4.72       8.24       7.82
O       4.38      19.35      18.18
O       2.45       8.19       7.85
