18

C      22.68      10.96      10.54
O      26.55      11.87      15.15
O      22.42       8.45      12.32
O      26.08       8.16      17.36
O      23.00      12.09      10.02
H      26.43      12.56      14.47
H      22.51       7.79      13.02
C      25.72      10.83      14.88
C      23.24       9.49      12.60
C      25.63       9.69      15.67
C      23.35      10.63      11.80
C      24.10       9.57      13.73
C      24.84      10.76      13.76
S      24.47       8.53      15.05
S      24.50      11.79      12.42
O      21.85      10.11      10.07
O      27.26      10.12      17.31
C      26.37       9.31      16.87
