66

P       3.45       8.12       1.65
P       3.87      16.33      12.09
P       7.22       4.66      13.86
H       3.30       9.31      -0.09
H       2.26      10.01       3.53
H       2.75      10.51       5.90
H       6.04       7.72       5.80
H       5.52       7.19       3.43
H       4.23      11.53       7.32
H       5.74      10.19      11.12
H       5.36       7.41       7.88
H       7.80       8.78      11.23
H       8.43       7.11      12.96
H       5.19       4.58      11.70
H       4.57       6.23       9.96
H       2.97      12.83       8.72
H       2.54      14.97       9.86
H       6.00      14.37      12.35
H       6.45      12.23      11.21
H       5.95       6.12      16.69
H       5.10       5.51      15.26
H       5.53       7.65      14.04
H       6.51       8.25      15.40
H       4.76       7.99      15.61
H       5.49      16.71       9.76
H       6.06      17.97      10.88
H       4.16      18.40       8.48
H       5.86      18.92       8.58
H       4.63      19.67       9.64
C       3.86       8.56       3.33
C       3.09       9.51       4.03
C       3.38       9.80       5.36
C       4.43       9.14       6.02
C       5.19       8.20       5.31
C       4.91       7.90       3.98
C       4.76       9.44       7.44
C       4.60      10.73       7.96
C       4.96      11.02       9.29
C       5.49      10.00      10.08
C       5.64       8.69       9.59
C       5.26       8.42       8.27
C       6.12       7.63      10.50
C       7.23       7.86      11.34
C       7.58       6.92      12.30
C       6.84       5.74      12.46
C       5.78       5.48      11.58
C       5.43       6.42      10.60
C       4.75      12.36       9.88
C       3.66      13.17       9.49
C       3.41      14.38      10.14
C       4.24      14.81      11.19
C       5.34      14.03      11.55
C       5.59      12.83      10.90
C       5.90       6.17      15.59
C       5.67       7.60      15.13
C       5.23      17.68      10.22
C       4.95      18.73       9.17
O       1.99       7.67       1.61
O       3.66       9.48       0.82
O       4.43       7.03       1.14
O       6.19       3.57      14.03
O       7.18       5.66      15.12
O       8.68       4.25      13.77
O       2.40      16.31      12.46
O       4.02      17.52      11.01
O       4.88      16.47      13.23
