20

O      11.66       0.29       8.63
H       7.15      -0.53      12.98
H       7.10       1.49      11.52
H      11.11      -1.45      11.56
H      12.44       0.64       8.10
C       9.10      -2.39      13.14
C       9.10      -1.15      12.31
C       7.99      -0.30      12.33
C       7.97       0.84      11.53
C       9.07       1.16      10.73
C       8.97       2.35       9.83
C      10.21       0.34      10.78
C      10.22      -0.83      11.53
S      11.76       0.90      10.10
O       9.56      -3.45      12.59
O       8.62      -2.29      14.32
O       8.80       3.47      10.40
O       8.99       2.10       8.58
O      11.73       2.34      10.03
O      12.83       0.25      10.82
