44

H      12.96      -1.84      12.54
H      10.75       1.84      12.54
H      13.69      -1.11       6.72
H      10.01       1.11       6.72
H      13.49      -2.96      14.51
H      14.01      -1.86      15.81
H      12.45      -2.68      15.93
H      10.22       2.96      14.51
H       9.70       1.86      15.81
H      11.25       2.68      15.93
H      14.82      -1.64       4.75
H      13.71      -2.15       3.45
H      14.54      -0.60       3.33
H       8.89       1.64       4.75
H       9.99       2.15       3.45
H       9.17       0.60       3.33
C      12.89      -0.63       6.16
C      10.81       0.63       6.16
C      11.85      -0.00      12.39
C      11.85      -0.00       6.86
C      13.15      -2.20      15.22
C      10.56       2.20      15.22
C      14.05      -1.29       4.04
C      11.85      -0.00       4.08
C       9.65       1.29       4.04
C      11.85      -0.00      15.18
C      11.85      -0.00       8.33
C      11.85      -0.00      10.92
C      11.85      -0.00      16.68
C      11.85       0.00       2.58
C      12.49      -1.06      14.49
C      11.22       1.06      14.49
C      12.91      -0.64       4.76
C      10.80       0.64       4.76
C      12.48      -1.04      13.10
C      11.23       1.04      13.10
N      11.00       0.84      10.29
N      12.70      -0.84      10.29
N      11.01       0.85       8.97
N      12.70      -0.85       8.97
O      10.72      -0.02      17.26
O      12.99       0.02      17.26
O      11.87       1.14       2.00
O      11.83      -1.14       2.00
