13

N       8.49       0.46       0.90
H      10.25       1.57       0.41
H       9.78       0.30      -0.75
H       8.69       0.91       2.98
H       8.60       2.32       1.94
O       7.40       2.17      -0.85
O       9.34       2.81      -1.77
O       5.88       0.90       1.54
O       6.35       2.08       3.37
C       8.68       2.10      -0.96
C       9.39       1.08      -0.08
C       8.20       1.30       2.08
C       6.71       1.43       2.35
