22

H       9.92       5.14       7.62
H      14.37       8.50       7.78
O      16.63       7.66       7.82
O       7.67       5.98       7.93
O      16.81       5.42       7.53
O       7.48       8.21       7.59
H       9.64       9.41       7.84
H      14.65       4.23       7.47
H      12.16       4.04       7.48
H      12.13       9.60       7.84
C      16.14       6.50       7.66
C       8.16       7.14       7.75
C       9.65       7.25       7.73
C      14.65       6.39       7.64
C      12.65       5.01       7.54
C      11.65       8.63       7.78
C      14.02       5.11       7.54
C      10.27       8.53       7.78
C      13.87       7.53       7.72
C      10.42       6.11       7.65
C      12.46       7.46       7.71
C      11.83       6.18       7.63
