20

H       2.90      -0.44      20.58
H       3.68       3.72      21.44
H       4.29       4.10      19.06
H       3.51      -0.06      18.20
C       5.30       2.89      14.76
C       3.64       2.90      20.73
C       3.98       3.11      19.40
C       3.94       2.04      18.47
C       3.25       1.62      21.17
C       1.92       0.84      24.92
C       4.66       2.49      15.98
C       3.55       0.76      18.92
C       2.88       1.40      22.52
C       3.21       0.55      20.24
C       4.31       2.27      17.13
C       2.53       1.19      23.67
O       1.13       1.69      25.46
O       6.14       2.08      14.23
O       5.03       4.06      14.32
O       2.15      -0.34      25.37
