14

O       8.70      12.11       8.65
C      -0.62      12.31       7.87
C       8.30      12.72       7.60
C       0.82      12.26       7.90
H       3.84      13.54       6.41
C       3.44      12.26       8.06
C       4.27      12.93       7.21
C       5.66      12.87       7.33
C       2.04      12.27       7.96
H       3.87      11.65       8.86
C       6.88      12.81       7.44
O      -1.22      11.27       7.45
O       9.01      13.25       6.67
O      -1.12      13.41       8.28
