10

N       2.27       6.41       0.31
N      -2.26       6.36       0.28
Cl       2.00       4.66       2.29
H      -1.91       7.75      -1.24
C       1.45       5.71       1.08
C      -1.46       7.08      -0.50
C      -0.08       6.86      -0.24
C       0.08       5.93       0.80
S       1.46       7.37      -0.79
S      -1.45       5.40       1.36
