22

H       7.46      10.78       2.29
H       7.52       8.76       3.76
H      11.43       9.35       6.51
H      13.11      11.13       6.76
H      13.06      13.13       5.26
H      11.33      13.35       3.54
C       9.20      12.74       2.11
C       9.28      11.59       3.06
C       8.27      10.65       3.00
C       8.31       9.51       3.83
C       9.35       9.32       4.73
C       9.32       8.05       5.52
C      10.38      10.31       4.87
C      11.40      10.22       5.85
C      12.35      11.21       5.99
C      12.32      12.35       5.15
C      11.34      12.47       4.18
C      10.35      11.47       4.01
O       8.04      13.25       1.92
O      10.28      13.11       1.54
O      10.44       7.49       5.77
O       8.17       7.62       5.86
