74

C      14.69      14.76       4.76
C      15.86      14.60       4.01
C      16.84      13.71       4.48
C      16.65      13.03       5.68
C      15.53      13.27       6.48
C      14.53      14.13       5.99
C      14.47      13.48      12.29
C      15.36      13.81      11.25
C      16.17      14.95      11.39
C      16.15      15.70      12.56
C      15.28      15.36      13.60
C      14.41      14.27      13.43
C      17.98       1.21       7.19
C      18.06       2.61       7.07
C      18.19       3.15       5.77
C      18.19       2.30       4.66
C      18.08       0.91       4.79
C      18.01       0.37       6.08
C      16.94       0.64      13.17
C      17.55       1.18      14.32
C      18.17       2.43      14.22
C      18.17       3.12      13.00
C      17.59       2.56      11.85
C      16.98       1.30      11.95
C      15.98       7.19      10.16
C      17.12       6.75       9.47
C      17.87       7.71       8.76
C      17.44       9.03       8.68
H      13.90      15.41       4.38
H      17.40      12.33       6.03
H      13.84      12.60      12.19
H      16.84      16.53      12.69
H      17.86       0.79       8.19
H      18.23       2.73       3.66
H      16.39      -0.30      13.27
H      18.61       4.11      12.94
H      15.40       6.46      10.73
H      18.02       9.75       8.11
C      17.65       3.34      10.59
C      17.43       5.30       9.48
C      17.89       3.39       8.33
C      15.55      12.67       7.83
C      15.43      12.92      10.07
C      15.91      10.89       9.19
C      16.28       9.46       9.34
C      15.57       8.52      10.11
Br      12.91      14.43       6.94
Br      18.45      13.34       3.55
Br      13.14      13.86      14.79
Br      17.45      15.45      10.07
Br      17.79      -1.50       6.37
Br      18.40       4.99       5.35
C      17.36       0.39      15.58
Br      16.04       0.47      10.52
C      15.42      16.02      14.94
Br      18.95       3.30      15.72
C      16.03      15.49       2.82
Br      13.97       8.98      11.02
Br      19.55       7.29       7.99
N      17.39       4.66      10.66
N      17.64       4.71       8.29
N      17.94       2.67       9.47
N      15.29      13.48       8.86
C      17.94       0.16       3.50
N      15.66      11.61      10.30
N      15.93      11.38       7.94
O      18.30       0.28      16.42
O      14.83      17.12      15.17
O      16.16      15.36      15.74
O      16.20      -0.14      15.67
O      15.05      15.67       2.03
O      18.55      -0.93       3.28
O      17.15       0.76       2.68
O      17.17      16.07       2.74
