66

H       4.46      13.41      12.43
H       4.46      13.34      14.93
H       1.97       7.33      23.09
H       2.06       9.49      21.82
H       2.58      21.34      26.14
H       2.48      19.16      24.90
H       4.47       9.02      26.15
H       4.45      11.23      24.96
H       2.02      16.95      12.51
H       2.13      16.97      15.02
H       5.15      22.97      23.10
H       4.96      20.85      21.79
H       0.55      14.40      24.12
H       0.65      18.69      19.58
H       0.51      12.59      18.07
C       3.22      15.19      10.84
C       3.90      23.57      25.44
C       3.20       6.77      25.44
C       3.94      14.17      13.01
C       3.94      14.13      14.40
C       2.53       8.18      23.47
C       2.57       9.38      22.77
C       3.11      21.21      25.20
C       3.05      20.01      24.52
C       3.93       9.15      25.21
C       3.93      10.37      24.55
C       2.57      16.18      13.05
C       2.62      16.19      14.44
C       4.55      22.14      23.48
C       4.45      20.96      22.75
C       3.24      15.18      12.33
C       3.29      15.15      15.13
C       3.26      15.14      16.54
C       3.11      15.19      17.74
C       2.97      15.20      19.14
C       3.22       8.06      24.69
C       3.26      10.49      23.32
C       3.21      11.72      22.63
C       3.06      12.75      22.00
C       2.94      13.96      21.29
C       3.86      22.28      24.69
C       3.70      19.88      23.27
C       3.53      18.68      22.54
C       3.25      17.64      21.97
C       3.03      16.43      21.29
C       2.89      13.98      19.87
C       2.92      15.20      21.98
C       2.96      16.42      19.87
S       2.48      15.25      23.73
S       2.56      17.95      19.00
S       2.44      12.47      19.00
O       2.19       6.00      25.24
O       2.22      15.75      10.27
O       2.92      23.80      26.22
O       4.19       6.54      26.21
O       4.91      24.33      25.24
O       4.21      14.63      10.26
O       3.63      14.93      24.58
O       1.81      16.49      24.00
O       1.51      14.05      23.84
O       3.72      18.82      18.88
O       1.88      17.62      17.78
O       1.61      18.64      20.01
O       3.58      11.92      18.28
O       1.77      11.59      19.91
O       1.47      13.01      17.92
