20

O       3.06       1.37       9.06
O       5.34       1.35       9.04
O       3.10       6.33      14.03
O       5.37       6.33      14.03
H       2.09       2.97      10.67
H       2.10       4.73      12.43
H       7.37       4.09      13.05
H       7.37       5.35      11.79
H       7.36       3.57      10.01
H       7.36       2.31      11.27
C       4.19       1.78       9.47
C       4.22       5.91      13.61
C       4.24       4.86      12.56
C       4.23       2.82      10.52
C       5.42       4.33      12.03
C       3.03       3.35      11.05
C       5.41       3.34      11.04
C       3.04       4.34      12.04
C       6.93       4.39      12.09
C       6.92       3.27      10.97
