26

C       3.90       6.00       4.14
O       1.55       6.00       3.63
C      10.35       3.06       4.14
O      12.70       3.06       3.63
C       5.00       6.76       4.56
C       9.25       2.30       4.56
C       6.26       6.18       4.63
C       7.99       2.88       4.63
C       6.45       4.83       4.28
C       7.80       4.23       4.28
C       5.33       4.07       3.90
C       8.92       4.99       3.90
C       4.06       4.65       3.83
C      10.19       4.41       3.83
H       4.84       7.80       4.83
H       9.41       1.26       4.83
O       2.49       7.93       4.16
H       7.11       6.78       4.95
O      11.76       1.13       4.16
H       7.14       2.28       4.95
H       5.46       3.03       3.61
H       8.79       6.03       3.61
H       3.20       4.07       3.50
H      11.05       4.99       3.50
C       2.58       6.67       3.98
C      11.67       2.39       3.98
