16

C      18.51       9.65       5.30
C      18.50      13.51       2.84
C      18.46      12.02       4.62
C      18.54      11.14       3.52
S      18.42      11.19       6.12
C      18.51       8.44       6.14
S      18.59      11.97       2.02
O      18.58      14.53       0.74
O      18.60       7.33       5.54
O      18.44      15.84       2.61
O      18.42       8.64       7.40
C      18.51      14.72       2.00
Br      18.65       8.40       2.65
Br      18.34      14.76       5.49
C      18.56       9.78       3.92
C      18.44      13.38       4.22
