36

Cl       4.37      10.38       9.07
Cl       8.90      14.96      20.12
H       7.91       9.37      13.28
H       5.35      15.97      15.91
H       4.89      11.79      11.37
H       8.37      13.54      17.81
O       7.42       7.63       8.64
O       5.84      17.70      20.54
H       6.22      13.42      12.26
H       7.04      11.92      16.92
O       5.16       7.52       8.70
O       8.10      17.82      20.48
H       6.40      15.08      14.07
H       6.86      10.25      15.12
C       6.29       7.92       9.13
C       6.98      17.41      20.05
C       7.15       8.65      11.41
C       6.12      16.68      17.77
C       7.21       9.56      12.46
C       6.05      15.78      16.72
C       6.42      10.72      12.46
C       6.84      14.62      16.72
C       5.54      10.92      11.39
C       7.72      14.41      17.79
C       5.47      10.00      10.35
C       7.79      15.33      18.83
C       6.29       8.85      10.31
C       6.98      16.48      18.87
C       6.38      13.08      13.29
C       6.88      12.25      15.89
C       6.48      14.02      14.31
C       6.78      11.31      14.88
C       6.74      13.63      15.63
C       6.53      11.71      13.55
Cl       8.15       7.25      11.52
Cl       5.12      18.09      17.66
