24

C       1.80       3.75       2.67
C       5.14       5.93       8.97
C       0.14       2.98       3.84
C       3.49       5.05      10.08
H       1.13       4.93       8.47
H       0.06       4.17       6.41
H       3.68       5.00       4.22
H       4.75       5.75       6.28
H       2.69       4.25       2.28
H       5.81       6.38       8.25
N       1.08       2.95       1.88
N       5.55       5.69      10.23
N       0.02       2.46       2.62
N       4.52       5.13      10.93
C       1.25       3.83       3.97
C       3.80       5.53       8.80
F      -0.77       2.63       4.78
F       2.33       4.50      10.51
C       1.70       4.95       7.55
C       1.09       4.52       6.37
C       1.80       4.47       5.16
C       3.05       5.35       7.56
C       3.11       4.99       5.15
C       3.72       5.42       6.32
