90

H       3.10      15.50      13.88
H       3.00      13.41      15.18
H       1.56       9.41      17.03
H       3.11       7.93      24.37
H       3.98       7.53      22.54
H       3.94       7.61      20.10
H       2.81       7.99      18.23
H       2.73       3.72      26.94
H       2.65       3.64      24.48
H       1.45       4.10      20.06
H       2.09      -1.56      15.13
H       3.34       0.11      15.63
H       3.56       2.18      16.93
H       2.53       3.70      18.23
H       1.87      -1.65      10.19
H       1.99       0.53      11.35
H       1.11       4.21      14.02
H       2.80      11.18      11.50
H       3.95       9.77      12.72
H       3.88       7.61      13.88
H       2.52       5.86      14.52
H       2.15      -4.84      13.63
H       1.80      -3.95      15.03
H       3.07      14.11       9.40
H       2.56      12.50       9.48
H       3.60       8.23      27.93
H       3.18       9.06      26.50
H       0.29       1.29      12.19
H      -0.02       2.90      12.51
H       1.14      12.51      15.39
H       0.69      11.49      16.64
H       0.94       3.99      23.53
H       0.54       3.43      22.01
C       3.16      15.82      11.24
C       2.03      -4.09      11.22
C       3.15       5.81      28.52
C       3.06      14.54      13.36
C       2.98      13.36      14.10
C       2.11      10.72      15.43
C       2.11       9.49      16.09
C       3.26       7.03      26.30
C       3.06       6.99      24.92
C       3.38       6.80      22.00
C       3.36       6.85      20.61
C       3.11      14.53      11.97
C       2.87      12.12      13.43
C       2.78      10.85      14.18
C       2.72       8.35      15.55
C       2.68       7.07      16.29
C       2.73       7.05      17.69
C       2.84       4.64      26.36
C       2.76       4.60      24.97
C       2.01       4.81      22.00
C       2.04       4.85      20.60
C       2.14      -2.80      13.39
C       2.08      -1.56      14.04
C       2.80       1.00      15.30
C       2.93       2.17      16.04
C       3.10       5.83      27.04
C       2.83       5.80      24.22
C       2.72       5.80      22.74
C       2.70       5.85      19.89
C       2.67       5.85      18.41
C       2.57       4.65      17.69
C       1.94      -1.61      11.28
C       1.98      -0.39      11.94
C       1.46       2.13      13.63
C       1.63       3.31      14.37
C       3.06      13.29      11.28
C       2.91      12.12      12.03
C       3.38       9.69      13.65
C       3.35       8.46      14.30
C       2.04      -2.82      11.98
C       2.03      -0.34      13.35
C       2.08       0.93      14.09
C       2.35       3.36      15.56
C       2.50       4.63      16.29
C       2.57       5.85      15.61
N       2.27      -3.97      14.14
N       3.14      13.22       9.89
N       3.59       8.23      26.91
N       0.70       2.18      12.47
N       1.46      11.79      16.04
N       1.29       3.78      22.61
O       4.08       6.46      29.11
O       4.10      16.00      10.39
O       2.95      -4.94      11.49
O       2.25       5.13      29.14
O       1.12      -4.28      10.34
O       2.26      16.69      11.51
