45

N      23.42      22.54      20.74
N      22.44      31.91       8.11
N      23.42      32.88       8.11
N      32.70      23.49       8.10
N      31.72      22.53       8.10
Si      27.58      27.71      14.42
N      32.71      31.93      20.74
N      31.74      32.90      20.73
H      25.17      22.20      19.59
H      22.11      25.27      19.60
H      25.17      33.22       9.25
H      22.10      30.15       9.25
H      29.96      22.19       9.25
H      33.05      25.24       9.25
H      29.98      33.24      19.59
H      33.06      30.17      19.59
C      24.31      22.84      19.78
C      23.93      24.03      19.13
C      22.74      24.41      19.78
C      24.31      32.59       9.07
C      23.93      31.40       9.72
C      22.74      31.02       9.07
C      30.83      22.82       9.06
C      31.22      24.01       9.72
C      32.41      24.38       9.07
C      30.85      32.60      19.77
C      31.23      31.41      19.12
C      32.42      31.03      19.78
C      24.60      24.71      18.10
C      25.21      25.32      17.24
C      25.91      26.02      16.32
C      26.55      26.68      15.49
C      30.55      24.69      10.75
C      29.94      25.31      11.61
C      29.26      26.01      12.54
C      28.62      26.67      13.36
C      30.56      30.73      18.10
C      29.95      30.11      17.23
C      29.26      29.41      16.31
C      28.62      28.75      15.49
C      24.60      30.72      10.75
C      25.21      30.11      11.61
C      25.91      29.40      12.53
C      26.55      28.75      13.36
N      22.45      23.52      20.74
