26

C       9.21       4.90       7.83
C       9.96       6.18       7.84
O      13.06      10.12       8.73
O       6.21       0.90       6.85
O       7.35       0.30       8.72
O      11.89      10.74       6.89
H       8.02       5.35       6.05
H      11.15       5.73       9.61
H      10.30       9.12       6.11
H       9.01       7.03       6.07
F       6.66       3.28       5.81
H      10.16       4.05       9.59
H       8.92       1.92       9.51
F      12.54       7.78       9.82
C      12.19       9.92       7.82
C       7.06       1.11       7.77
C       7.79       2.42       7.76
C      11.44       8.62       7.85
C       7.57       3.43       6.81
C       8.26       4.63       6.83
C      11.64       7.63       8.82
C      10.92       6.44       8.82
C      10.47       8.36       6.87
C       9.75       7.17       6.86
C       8.74       2.69       8.76
C       9.43       3.90       8.80
