26

H      16.61       6.85      12.57
H      17.70       4.61      12.46
H      18.39       4.75      16.71
H      17.27       6.96      16.82
O      21.89      -0.74      15.07
O      20.12      -1.57      13.89
O      16.10       9.00      13.60
O      16.08       8.98      15.87
H      18.57       0.13      13.09
H      17.41       2.33      13.15
H      20.43       3.81      15.85
H      21.58       1.60      15.77
C      16.89       7.06      14.70
C      17.00       6.37      13.47
C      17.60       5.12      13.42
C      18.14       4.53      14.57
C      18.02       5.21      15.80
C      17.39       6.45      15.86
C      18.98       0.95      13.67
C      18.34       2.18      13.71
C      18.84       3.23      14.51
C      20.01       3.01      15.25
C      20.67       1.78      15.19
C      20.15       0.73      14.42
C      20.77      -0.63      14.45
C      16.31       8.43      14.74
