24

Br      -2.77       7.65       5.74
Br     -11.87       3.63      11.41
N      -4.82       7.35       2.34
N      -9.52       4.18      14.57
C      -5.59       6.57       3.12
C      -8.66       4.63      13.64
N      -3.83       7.86       3.09
N     -10.65       3.80      13.95
N      -6.49       5.66       2.52
N      -7.40       5.07      14.10
C      -3.99       7.39       4.36
C     -10.50       4.01      12.61
O      -7.32       5.07       3.21
O      -6.36       5.45       1.26
O      -6.58       5.51      13.29
O      -7.17       4.99      15.36
C      -5.15       6.58       4.46
C      -9.21       4.53      12.33
C      -5.70       6.01       5.60
C      -8.61       4.77      11.10
C      -6.21       5.63       6.65
C      -8.04       4.91      10.02
C      -6.82       5.31       7.79
C      -7.41       5.10       8.86
