38

H       3.04       0.21       8.34
N       4.57       2.72       9.62
H      10.56      -8.27      10.44
N       3.62       2.20       8.78
N      10.20      -9.74       8.94
H       7.15      -9.30       8.01
H       5.87      -7.85       9.19
H       9.39      -6.38      11.21
H       8.34      -1.91      12.44
H       6.75      -0.30      11.40
H       3.21      -1.76       9.40
N       9.11     -10.05       8.18
H       3.79      -6.48       9.15
H       2.81      -4.21       9.23
H       9.33      -4.18      12.37
H       5.97       1.91      11.00
C       5.19       1.70      10.28
C       3.68       0.86       8.91
C       4.64       0.48       9.87
C       9.85      -8.71       9.75
C       8.10      -9.23       8.52
C       8.51      -8.34       9.53
C       6.39      -7.07       9.75
C       7.74      -7.23      10.09
C       8.36      -6.25      10.89
C       7.71      -5.05      11.20
C       6.39      -4.83      10.70
C       5.69      -5.89      10.03
C       8.36      -3.98      11.90
C       7.81      -2.73      11.94
C       6.57      -2.44      11.28
C       5.82      -3.53      10.74
C       4.56      -3.28      10.12
C       3.81      -4.39       9.62
C       4.35      -5.65       9.58
C       6.13      -1.13      11.05
C       4.97      -0.87      10.30
C       4.16      -1.95       9.92
