21

O      12.24      17.26       0.40
O      10.98      16.51       2.14
O      16.88      13.32       7.24
O      18.21      12.71       5.48
H      14.51      16.81       0.42
H      14.53      13.59       7.00
H      13.48      14.91       6.45
H      13.29      13.29       5.76
H      12.49      15.41       3.97
C      12.10      16.67       1.52
C      13.35      16.15       2.13
C      14.55      16.29       1.38
C      15.75      15.21       2.95
C      16.35      14.02       5.02
C      17.19      13.29       6.00
C      15.01      14.36       5.04
C      14.03      14.02       6.13
C      14.64      15.04       3.83
C      13.40      15.52       3.38
S      17.19      14.49       3.57
N      15.73      15.83       1.77
