26

Cl       6.68      17.25       8.70
Cl       2.81      21.72       7.09
H       7.59      18.66      10.72
H       2.00      20.37       4.98
H       4.16      16.67       5.06
O       8.20      20.18      12.53
H       5.43      22.36      10.66
H       4.22      21.59       8.70
O       1.42      18.86       3.15
O       2.57      16.90       3.16
H       5.29      17.39       7.07
O       7.06      22.15      12.52
C       7.35      21.00      12.04
C       2.29      18.05       3.63
C       6.61      20.56      10.83
C       3.00      18.47       4.86
C       6.85      19.31      10.27
C       6.15      18.86       9.14
C       2.74      19.71       5.45
C       3.38      20.13       6.61
C       3.94      17.64       5.48
C       4.58      18.07       6.64
C       5.64      21.37      10.24
C       4.96      20.92       9.12
C       5.16      19.67       8.49
C       4.37      19.32       7.27
