74

C       5.58      23.34       7.27
C       4.45      24.04       6.80
H       4.63      24.33       9.63
H       8.45      25.08      11.46
H       8.26      23.45       7.48
H      16.26      24.45       9.80
H      12.69      25.36      12.03
H      12.40      23.68       8.07
O      16.54      20.86       3.57
O      17.82      22.73       3.46
O       3.75      20.83       3.29
O       2.36      22.61       3.48
H      10.33      23.85       8.34
H      10.58      24.94      11.21
H      15.53      28.08      14.38
H      18.12      24.67      14.06
H      16.80      23.84      12.11
H      14.17      27.23      12.47
H      14.73      21.02       5.23
H      17.65      24.15       5.46
H      16.58      25.01       7.55
H      13.64      21.86       7.31
H       3.11      24.60      13.91
H       5.98      27.78      14.21
H       7.16      26.92      12.19
H       4.27      23.74      11.88
H       2.89      24.15       5.31
H       5.53      20.78       4.99
H       6.82      21.59       6.96
H       4.15      24.96       7.30
O       4.00      28.00      15.70
O       3.05      25.97      16.03
C      16.92      22.01       4.00
C       3.37      21.92       3.84
C      17.70      26.93      15.50
C       3.78      26.79      15.38
C       6.36      23.82       8.43
C       5.72      24.30       9.58
C       6.48      24.77      10.67
C       7.87      24.74      10.60
C       8.54      24.26       9.46
C       7.76      23.80       8.38
C      14.39      24.00       8.81
C      15.17      24.48       9.88
C      14.57      24.98      11.04
C      13.17      25.00      11.12
C      12.36      24.52      10.07
C      12.99      24.03       8.92
O      17.45      28.11      15.92
O      18.56      26.13      16.01
C       9.99      24.22       9.32
C      10.91      24.57      10.23
C      15.79      27.14      13.88
C      16.91      26.43      14.34
C      17.26      25.23      13.69
C      16.52      24.77      12.61
C      15.39      25.47      12.16
C      15.03      26.66      12.82
C      15.12      21.90       5.75
C      16.26      22.53       5.23
C      16.78      23.66       5.88
C      16.18      24.13       7.05
C      15.03      23.50       7.58
C      14.51      22.38       6.90
C       3.99      25.11      13.51
C       4.46      26.26      14.16
C       5.61      26.90      13.68
C       6.28      26.41      12.56
C       5.79      25.27      11.88
C       4.64      24.63      12.38
C       3.75      23.59       5.68
C       4.14      22.42       5.02
C       5.25      21.71       5.49
C       5.96      22.16       6.59
