30

H      14.00       5.53       5.53
H       4.68       5.53       5.53
H      10.29       3.46       4.88
H      10.29       7.59       6.18
H       8.39       3.46       6.18
H       8.39       7.59       4.88
C      12.95       3.09       4.96
C      12.95       7.96       6.10
C       5.72       3.09       6.10
C       5.72       7.96       4.95
C      12.20       4.36       5.22
C      12.20       6.69       5.83
C       6.47       4.36       5.83
C       6.47       6.69       5.22
C      12.91       5.53       5.53
C       5.77       5.53       5.53
C      10.80       4.37       5.19
C      10.80       6.68       5.87
C       7.87       4.37       5.87
C       7.87       6.68       5.19
C      10.08       5.53       5.53
C       8.59       5.53       5.53
O      14.11       3.01       5.48
O      14.11       8.04       5.58
O       4.56       3.01       5.58
O       4.56       8.04       5.48
O      12.36       2.20       4.26
O      12.36       8.85       6.79
O       6.31       2.20       6.79
O       6.31       8.85       4.26
