30

C       6.09       1.21       0.52
C       6.60      -1.50      -0.53
H       5.08       0.65      -1.34
C       6.61      -1.22       0.99
C       6.08       0.92      -1.00
H       5.61      -1.36       1.42
C       6.93      -0.88      -3.90
C       6.94       0.85       3.83
C       7.06       0.24       1.25
C       7.05      -0.24      -1.32
C       8.48       0.15      -0.86
H       5.09       1.09       0.96
H       5.60      -1.79      -0.88
C       8.48       0.43       0.67
H       7.29      -1.90       1.52
C       7.01      -0.55      -2.73
H       6.39       1.81      -1.57
C       7.03       0.54       2.67
H       7.28      -2.33      -0.78
H       6.41       2.24       0.73
H       8.82       1.46       0.88
H       9.17      -0.67      -1.11
H       9.18      -0.24       1.19
H       8.81       1.03      -1.42
O       7.94       1.58       5.79
O       7.91      -1.62      -5.86
O       5.71       1.94       5.46
O       5.69      -1.99      -5.50
C       6.84       1.49       5.12
C       6.82      -1.52      -5.17
