30

C       3.12      11.05      26.49
H       1.13       9.33      22.33
H       1.34       8.69      20.08
H       3.59      11.69      19.75
Br       2.17       7.28      23.22
H       1.91      11.16      19.80
H       1.91      11.63      22.11
H       3.64      11.98      22.07
H       5.12       8.35      20.35
O       2.29       7.83      15.73
H       2.63       7.56      20.48
H       5.34      10.13      22.60
O       4.55       7.98      15.53
H       5.42      10.09      20.24
H       4.77       8.46      22.65
O       4.25      11.24      27.01
O       1.98      11.34      27.02
C       3.43       8.19      16.13
C       2.30       8.60      20.61
C       2.90      11.00      20.25
C       2.88      11.24      21.77
C       3.08      10.51      25.16
C       3.35       9.55      19.97
C       2.12       8.92      22.11
C       3.19       9.93      22.56
C       4.60       9.43      22.17
C       4.73       9.33      20.64
C       3.11      10.21      23.98
C       3.43       9.24      18.56
C       3.48       8.86      17.40
