22

H       2.98      16.92      11.99
H       2.98      13.25      17.03
C       2.00      18.38      16.35
C       2.00      11.78      12.67
C       2.05      16.89      14.24
C       2.05      13.28      14.78
C       2.01      17.09      15.61
C       2.01      13.08      13.41
C       2.04      14.67      15.08
C       2.04      15.49      13.94
C       1.98      18.01      13.26
C       1.98      12.15      15.76
S       1.95      15.62      16.52
S       1.95      14.54      12.50
O       1.05      18.54      17.18
O       2.95      19.18      16.13
O       1.05      11.63      11.85
O       2.95      10.98      12.90
O       2.48      17.76      12.02
O       1.48      19.09      13.51
O       2.48      12.41      17.01
O       1.48      11.08      15.51
