18

C      13.57      10.90       2.06
O      13.91      11.10       0.84
O      15.76      12.21       4.79
O      16.65      14.23       5.95
O      14.69      12.96       6.83
H      13.44      15.34       3.12
H      13.24      11.82       4.00
S      15.54      13.40       5.55
C      13.91      14.43       3.50
C      14.40      14.53       4.75
C      13.90      13.29       2.61
H      14.39      13.83       7.23
H      14.13      13.47       1.55
C      13.53      12.05       2.98
O      14.00      15.55       6.84
O      13.92      16.85       4.97
O      13.30       9.76       2.58
C      14.10      15.75       5.58
