28

C       2.28      19.54       3.17
C       8.67      13.16      12.20
F       4.29      17.49       2.64
F       1.88      19.89       6.04
F       3.20      18.54       7.89
F       5.57      16.17       4.53
F       7.67      14.08       7.49
F       5.29      16.45      10.85
F       6.61      15.16      12.74
F       9.02      12.75       9.33
C       3.02      18.78       4.23
C       3.98      17.79       3.91
C       4.66      17.09       4.90
C       4.43      17.32       6.26
C       3.47      18.29       6.59
C       2.78      19.00       5.61
C       5.13      16.61       7.26
C       5.73      16.00       8.12
C       6.44      15.30       9.11
C       7.41      14.34       8.79
C       8.12      13.65       9.77
C       7.90      13.89      11.14
C       6.92      14.86      11.47
C       6.22      15.54      10.48
O       1.43      20.40       3.56
O       9.53      12.30      11.81
O       8.39      13.43      13.42
O       2.56      19.27       1.96
