18

O      17.55      15.84      12.23
O      15.27      15.90      12.07
O      15.38      11.49       7.97
O      17.53      11.27       8.70
H      15.69      16.21       5.91
H      15.68      17.49       7.01
H      16.13      13.91       6.57
H      16.88      13.18      10.75
H      16.12      17.20       9.37
C      16.19      15.68       7.83
C      16.27      14.30       7.58
C      16.53      13.42       8.63
C      16.69      13.88       9.94
C      16.50      15.24      10.19
C      16.26      16.14       9.15
C      16.45      15.71      11.61
C      16.49      11.95       8.41
N      16.06      16.59       6.77
