28

O       5.45       8.19      10.91
O       7.49       8.00      24.65
O       7.71       8.32      10.94
O       5.23       7.84      24.61
H       4.27       8.56      19.92
H       8.65       8.89      15.65
H       4.24       8.13      22.38
H       8.68       8.59      13.16
H       8.50       8.60      22.52
H       4.39       8.52      13.09
H       8.55       9.02      20.05
H       4.33       8.85      15.58
C       6.57       8.32      11.50
C       6.36       8.03      24.06
C       5.19       8.57      20.49
C       7.72       8.81      15.09
C       5.18       8.33      21.86
C       7.74       8.64      13.71
C       6.37       8.32      22.59
C       6.54       8.53      12.99
C       7.58       8.59      21.94
C       5.32       8.61      13.67
C       7.61       8.83      20.57
C       5.28       8.79      15.04
C       6.41       8.80      19.82
C       6.49       8.88      15.78
C       6.44       8.94      18.41
C       6.46       8.96      17.19
