28

H       8.42       0.89       7.56
O       8.52      -6.06       9.61
O       8.75       0.99      11.75
O       6.02      -1.02       7.45
O       4.82       0.93       9.74
H       9.04       0.27      12.35
H       4.18       0.19       9.75
O       9.96      -0.97       9.47
H      10.59      -0.22       9.46
H       5.74      -0.31       6.85
O       6.25       6.02       9.60
O       8.53       5.98       9.60
O       6.24      -6.02       9.60
H       6.35      -0.92      11.65
C       7.39      -5.47       9.60
C       6.10       0.41       9.68
C       7.42      -1.40       9.58
C       7.36       1.36       9.62
C       7.42      -2.81       9.58
C       7.35       2.77       9.63
C       7.38       5.44       9.61
C       8.06       0.43      10.69
C       6.71      -0.47       8.51
C       6.81      -0.51      10.75
C       7.97       0.47       8.46
C       7.41      -4.03       9.59
C       7.37       3.99       9.62
C       8.68      -0.44       9.52
