32

O       0.15       1.15       5.69
H      -1.18      -0.39      -6.18
H      -2.52       1.42       1.89
H      -3.27       0.13      -0.10
H      -3.07      -3.53      -3.86
H      -0.76       0.66       3.86
H      -1.56       1.97       4.79
H      -1.64       0.27       5.38
H       2.77       4.50       3.90
H      -0.34       2.16      -2.52
H       0.43       3.44      -0.53
C      -1.66      -1.29      -5.81
C       1.14       2.97       4.21
C      -0.39       2.72      -0.44
C      -0.93       2.45       0.84
C      -2.04       1.57       0.92
C      -2.46       0.85      -0.19
C      -1.80       1.00      -1.43
C      -0.81       2.00      -1.55
C      -0.30       2.90       2.02
C      -2.03       0.11      -2.50
C      -2.06      -0.72      -3.40
C       0.36       3.00       3.05
C      -2.62      -2.89      -4.62
C      -2.10      -1.59      -4.50
C      -1.02       1.01       4.87
C       2.31       3.72       4.49
C       1.05       2.09       5.34
N      -1.93      -2.32      -6.63
N      -2.53      -3.33      -5.90
N       2.85       3.31       5.65
N       2.08       2.30       6.18
