30

H       1.12      16.22       7.19
H       1.12       8.42       7.03
H       3.26      10.29       3.80
H       3.24      12.44       5.07
H       3.26      14.35      10.42
H       3.24      12.20       9.15
N       0.98      14.09       5.64
N       0.98      10.55       8.58
O       1.22      16.90      10.45
O       3.12      17.52       9.39
H       1.26      13.32       5.05
H       0.90      14.98       5.16
H       1.26      11.32       9.17
H       0.90       9.66       9.06
O       1.22       7.73       3.77
O       3.13       7.12       4.83
C       2.17      16.70       9.63
C       2.17       7.93       4.60
C       2.17      15.41       8.88
C       2.18       9.23       5.34
C       1.60      15.33       7.62
C       1.60      14.13       6.89
C       1.60       9.30       6.61
C       1.60      10.50       7.33
C       2.76      10.36       4.77
C       2.75      11.55       5.48
C       2.76      14.28       9.46
C       2.75      13.08       8.74
C       2.17      12.97       7.47
C       2.17      11.67       6.75
