26

H      10.23       8.68       9.19
H       9.88      13.61       9.40
H       5.96      13.25       6.70
H       6.08       8.72       6.77
H      12.03       8.93      10.55
H      11.69      13.49      10.83
C       8.24       8.20       7.48
C       8.02      13.93       7.49
C       8.13       9.64       7.73
C       9.14      10.39       8.45
C       6.99      10.30       7.22
C      10.16       9.76       9.20
C      11.05      10.47       9.98
C       8.00      12.48       7.75
C       6.94      11.73       7.21
C       9.06      11.82       8.48
C       9.97      12.52       9.31
C      10.95      11.88      10.05
O       7.15       7.56       7.17
O       6.89      14.50       7.20
O       9.12      14.55       7.55
O       9.38       7.62       7.52
O       5.87      12.26       6.60
O       5.94       9.70       6.66
O      12.03       9.88      10.73
O      11.83      12.53      10.87
