12

H       2.90       4.37      17.57
C       3.40       4.85      18.43
C       4.22       3.81      19.19
C       4.39       5.92      17.93
O       4.27       4.03      20.45
O       2.45       5.44      19.26
O       4.51       6.76      20.24
O       5.26       8.00      18.53
O       4.84       2.89      18.58
H       3.94       6.47      17.08
H       5.34       5.50      17.57
C       4.73       6.95      19.00
