22

O       5.14      -7.89      13.86
O       4.05      -6.98      15.63
H       6.57      -3.04      12.63
H       5.98      -5.75      16.74
H       7.26      -3.60      16.84
H       7.40      -5.61      11.21
H       6.78      -7.10      11.96
H       6.15      -6.57      10.38
H       4.50      -6.03      12.17
H       5.13      -4.54      11.45
C       7.70      -1.90      14.83
C       4.91      -6.93      14.69
C       6.47      -3.66      13.52
C       5.85      -4.92      13.42
C       5.68      -5.66      14.61
C       6.16      -5.17      15.84
C       6.85      -3.97      15.90
C       6.98      -3.20      14.74
C       5.40      -5.41      12.07
C       6.50      -6.22      11.36
O       8.62      -1.83      15.71
O       7.36      -0.94      14.04
