61

C      14.12      13.08      24.59
N      13.09       9.30      22.97
C      14.06      11.93      25.40
H      16.90      15.85      27.11
H      16.13      13.60      26.37
C      13.69      10.70      24.88
C      13.41      10.56      23.51
H      13.11      15.56      23.99
C      13.47      11.70      22.69
H      13.98      17.75      24.87
C      13.80      12.94      23.23
H      14.27      12.02      26.47
H      13.61       9.83      25.53
C      15.41       2.02      25.07
C      14.85       3.18      24.56
H      13.28      11.61      21.62
H      13.87      13.80      22.57
C      15.41       4.43      24.86
C      16.57       4.42      25.67
H      14.98       1.04      24.89
H      13.97       3.10      23.92
C      17.10       3.22      26.11
C      14.83       5.69      24.37
H      17.06       5.35      25.96
C      13.48       5.75      23.96
H      18.03       3.19      26.68
C      12.91       6.94      23.51
H      12.85       4.86      24.03
C      13.68       8.11      23.46
H      11.87       6.96      23.20
H      15.63       8.97      23.80
C      15.02       8.07      23.86
C      15.58       6.88      24.30
H      16.64       6.86      24.57
C       8.88      10.25      16.35
H       8.14      11.00      16.05
C       9.46      10.24      17.61
H       9.21      11.04      18.30
C      10.36       9.22      17.95
H      11.28       7.41      17.18
C      10.61       8.24      16.98
H      10.23       7.60      14.95
H       9.50      10.33      20.30
C      10.01       8.33      15.73
H      10.70      10.39      22.46
C      11.03       9.20      19.26
C      10.47       9.85      20.38
H      13.89       8.06      20.75
C      11.13       9.87      21.60
H      12.74       8.07      18.57
N      16.52       2.04      25.84
C      12.37       9.23      21.74
C      12.92       8.55      20.65
C      16.03      15.74      26.46
C      12.26       8.54      19.43
C      15.60      14.49      26.03
C      14.41      16.79      25.17
N      15.44      16.88      26.04
C      14.54      14.38      25.12
C      13.95      15.58      24.69
N       9.16       9.33      15.41
