15

H       3.48       9.61      10.00
C       2.37      12.08       9.62
C       3.83      10.37      10.70
H       5.14       9.03      11.80
C       3.34      11.68      10.63
H       3.47      13.65      11.53
C       4.77      12.22      12.49
C       4.75      10.04      11.68
C       3.82      12.62      11.56
H       5.19      12.93      13.21
N       1.05      13.28       8.51
N       1.10      12.07       7.94
N       1.92      11.29       8.62
N       1.83      13.32       9.56
N       5.23      10.96      12.55
