28

H      -1.07      -5.63      15.58
H       1.56      -3.85      12.69
N      -0.15      -4.78      18.87
C       3.94      -1.78      19.23
C       4.31      -3.04      18.76
C       3.56      -3.65      17.74
N       4.25      -5.97      16.80
H       5.17      -3.55      19.18
H       2.54      -0.16      19.09
C       2.44      -2.99      17.19
C       2.08      -1.74      17.69
C       2.82      -1.13      18.70
C       4.75      -1.13      20.30
C       3.94      -4.93      17.23
O      -0.24      -5.17      11.73
O      -1.68      -6.06      13.26
H       2.90      -2.82      14.53
O       4.34       0.02      20.71
O       5.78      -1.76      20.71
H       1.20      -1.24      17.27
C       0.16      -4.79      14.02
C      -0.21      -5.01      15.35
C       0.54      -4.43      16.39
C       1.66      -3.62      16.09
C       2.02      -3.43      14.76
C       1.28      -4.01      13.73
C      -0.65      -5.39      12.92
C       0.16      -4.63      17.75
