46

H      -1.57       5.43       5.93
H     -13.31       5.85       6.53
C     -13.56       3.08       8.28
H      -8.82       3.21       8.67
C      -3.01       1.74       9.37
H      -8.78       5.34       5.67
H      -6.66       5.40       7.74
H      -6.47       5.57       5.99
H      -8.98       5.32       7.43
H      -6.24       1.88       5.32
H      -8.80       1.64       7.89
H      -6.44       1.66       7.78
H      -8.59       3.39       4.42
C      -8.16       0.29       5.42
N      -0.10       4.44       7.09
N      -0.13       3.42       8.01
N     -14.57       5.01       8.02
H     -13.38       2.10       8.70
N     -14.59       3.84       8.70
H      -3.53       1.31       8.50
H      -3.53       2.66       9.68
O      -1.63       2.03       9.04
H      -2.97       1.02      10.19
O      -8.74       1.47       4.87
H      -6.49       3.09       8.82
H      -8.14       0.28       6.52
H      -7.13       0.12       5.05
H      -8.79      -0.53       5.07
H      -6.29       3.45       4.53
C     -12.82       3.79       7.31
C      -1.36       4.66       6.67
C      -1.41       3.02       8.15
C     -13.52       5.01       7.18
C      -2.26       3.78       7.30
C      -8.39       2.66       7.82
C      -8.45       4.84       6.59
C      -6.92       4.94       6.77
C      -3.64       3.68       7.07
C      -8.90       3.35       6.53
C      -6.85       2.68       7.87
C      -6.28       3.53       6.71
C      -6.70       2.87       5.37
C      -8.24       2.76       5.25
C      -4.84       3.62       6.85
C     -10.36       3.33       6.53
C     -11.53       3.49       6.81
