10

C       0.92       5.69       7.74
C      -5.76       5.82       7.78
C      -0.52       5.69       7.75
O       1.48       6.83       7.82
C      -4.32       5.80       7.77
C      -1.75       5.72       7.75
O       1.49       4.55       7.66
O      -6.32       6.86       7.30
O      -6.33       4.80       8.27
C      -3.10       5.76       7.76
