32

H       7.86      13.12      14.96
H       7.82      15.63      15.08
H      12.14      15.64      15.24
H       7.68      19.97      15.09
H      12.00      22.44      15.26
H      12.00      19.94      15.36
N      12.50      13.04      15.05
N       7.37      22.57      14.86
O       8.80      11.01      14.71
O      10.97      10.88      15.37
O      11.08      24.57      14.78
O       8.91      24.73      15.43
O      12.87      12.60      13.96
O      13.16      13.02      16.10
O       7.16      23.05      13.74
O       6.56      22.55      15.80
C       9.92      11.51      15.02
C       9.95      24.09      15.10
C       9.99      12.99      15.01
C       8.78      13.70      15.01
C       8.76      15.08      15.08
C       9.97      15.79      15.17
C      11.20      15.10      15.18
C      11.18      13.72      15.09
C       9.94      17.19      15.23
C       9.86      18.40      15.26
C       9.84      19.80      15.24
C       8.63      20.51      15.13
C       8.67      21.89      15.06
C       9.87      22.60      15.11
C      11.07      21.88      15.22
C      11.07      20.50      15.28
