23

O       0.37       2.42       3.13
H       3.32       3.86       7.85
H       4.65       1.22       4.10
H       0.58       1.73       2.41
C       1.48       5.42       8.81
C       1.49       4.86       7.42
C       2.67       1.84       3.49
C       3.69       2.43       5.59
C       3.77       1.80       4.38
C       1.50       2.55       3.83
C       1.52       3.44       4.96
C       2.60       3.29       5.91
C       2.53       4.00       7.12
C       0.50       5.12       6.44
C       0.53       4.44       5.22
C       2.76       1.12       2.21
Br      -0.81       6.47       6.73
Br       5.08       2.12       6.87
Br      -0.68       4.98       3.86
O       0.35       5.60       9.36
O       2.61       5.61       9.36
O       1.64       0.88       1.61
O       3.89       0.80       1.75
