22

H       0.93       4.00       5.93
H      -5.59       4.56       8.90
H      -0.34       2.34       7.27
H      -4.33       6.22       7.56
C       0.27       6.46       5.29
C      -4.94       2.10       9.54
C      -0.60       5.51       5.99
C      -4.07       3.05       8.83
C      -1.91       5.84       6.42
C      -2.76       2.72       8.41
C      -0.07       4.23       6.30
C      -4.60       4.33       8.53
C      -0.76       3.32       7.05
C      -3.90       5.24       7.78
C      -2.04       3.65       7.57
C      -2.63       4.91       7.26
O       1.47       6.12       4.98
O      -6.13       2.44       9.85
O      -0.17       7.65       5.02
O      -4.49       0.91       9.81
O      -2.53       6.98       6.10
O      -2.14       1.57       8.73
