16

O      11.31      13.22       5.88
C       7.23       9.57       2.09
Br       6.79      12.69       2.92
C      11.45      12.01       5.54
O       7.37       8.36       1.75
Br      11.90       8.89       4.71
Br       9.71       7.63       2.92
O       6.25      10.30       1.75
C       9.24      12.13       4.22
Br       8.98      13.95       4.71
C       8.32      10.20       2.98
C      10.37      11.38       4.65
C       8.24      11.55       3.41
C      10.45      10.03       4.22
O      12.43      11.28       5.88
C       9.45       9.45       3.41
