34

H       5.90       5.41       2.33
H       9.64       7.35       3.17
H      10.70       0.08       4.39
H       9.20       1.72       8.07
N       6.37       3.18       3.62
N      10.78       5.41       4.47
N       9.91       2.01       2.79
N       8.09       3.88       7.06
C       7.28       7.74       1.89
C       7.70       6.54       2.71
C       6.87       5.43       2.82
C       7.31       4.32       3.55
C       8.57       4.25       4.17
C       9.39       5.38       3.98
C       8.96       6.51       3.29
C       9.05       3.05       4.90
C       9.70       1.99       4.25
C      10.19       0.88       4.93
C      10.06       0.80       6.31
C       9.36       1.80       6.99
C       8.85       2.88       6.29
C      10.66      -0.34       7.06
O       6.22       7.61       1.21
O       8.06       8.74       1.92
O      10.62      -0.31       8.35
O      11.21      -1.28       6.43
O       5.51       3.10       2.74
O       6.50       2.38       4.56
O      11.50       6.36       4.11
O      11.17       4.50       5.22
O       9.90       3.12       2.21
O      10.09       0.93       2.22
O       7.82       4.96       6.51
O       7.75       3.59       8.21
