34

H       3.57       0.06       3.96
H       3.28       0.08       6.42
H       7.57      -0.12       6.88
H       1.92      -0.12      10.41
H       6.21       0.08      10.89
H       5.90       0.06      13.35
H       6.28      -0.04       8.81
H       3.22      -0.04       8.49
H       8.23      -0.20       3.31
H       8.92      -0.28       4.92
H       1.24      -0.20      13.98
H       0.56      -0.28      12.36
C       3.72      -0.08      14.76
C       5.75      -0.08       2.54
C       5.71      -0.05       4.01
C       4.44       0.01       4.62
C       4.28       0.02       5.99
C       5.42      -0.04       6.83
C       6.68      -0.09       6.24
C       6.87      -0.10       4.84
C       5.32      -0.04       8.29
C       4.17      -0.04       9.01
C       2.80      -0.09      11.05
C       4.07      -0.03      10.47
C       5.21       0.02      11.32
C       5.04       0.01      12.68
C       3.76      -0.05      13.29
C       2.61      -0.10      12.46
N       8.13      -0.13       4.32
N       1.35      -0.13      12.97
O       4.83      -0.03      15.39
O       2.57      -0.15      15.38
O       4.64      -0.03       1.92
O       6.89      -0.15       1.92
