25

O      11.93       6.78      15.37
O      13.21       6.76      17.24
O      19.36      11.17      11.80
O      18.09      10.73       9.96
O      18.63       9.50      13.98
H      15.47       7.37      16.97
H      17.44       8.46      15.80
H      13.02       8.09      13.52
H      12.92       9.86      11.96
H      13.82       9.83      10.42
H      13.36       8.30      11.22
H      15.88      10.32      10.49
C      13.01       7.02      16.01
C      14.15       7.67      15.29
C      15.38       7.77      15.96
C      16.46       8.37      15.32
C      16.34       8.90      14.03
C      15.08       8.81      13.37
C      13.99       8.18      14.01
C      13.69       9.33      11.39
C      16.04       9.93      11.50
C      17.29      10.04      12.06
C      18.34      10.70      11.22
C      17.54       9.51      13.40
N      14.97       9.36      12.09
