19

H       4.24       1.44       7.41
H      -0.66      -2.62       8.83
H      -0.27      -1.48      10.13
H       0.35      -3.15      10.18
C       2.33       3.34       8.40
C       2.36      -4.14       8.21
C       1.35      -1.86       8.78
C       3.32       1.06       7.85
C       2.33      -2.68       8.23
C       2.33       1.87       8.37
C       2.96      -0.30       7.96
C       1.71      -0.50       8.60
C       0.13      -2.30       9.52
S       3.68      -1.81       7.54
S       0.97       1.00       9.01
O       3.44       3.93       8.18
O       3.49      -4.71       8.00
O       1.25      -4.74       8.40
O       1.21       3.91       8.63
