26

O       3.83       5.98       2.08
O       6.00       5.32       2.20
C       4.83       5.75       4.20
C       4.33       4.61       4.90
O       6.22       8.14       3.28
O       4.78       9.14       4.61
C       5.16       6.88       4.92
C       3.90       3.45       4.19
H       3.97       3.42       3.11
H       3.08       1.48       4.33
C       3.40       2.36       4.88
H       2.89       1.53       6.82
C       4.65       5.79       7.04
C       5.10       6.89       6.34
C       4.21       4.64       6.32
C       3.70       3.50       7.00
C       3.29       2.39       6.29
H       3.60       3.52       8.09
O       5.05       8.44       8.07
O       6.74       8.49       6.65
C       4.71       5.73       8.55
N       5.66       8.03       7.07
C       4.91       5.70       2.70
N       5.42       8.15       4.22
O       5.87       5.54       9.03
O       3.61       5.82       9.16
