22

C       7.22      11.33      11.55
C       7.49      12.55      12.21
H      10.38      14.95       7.73
C       9.60      12.94       7.61
H       7.44      10.17       9.76
C       8.85      11.93       8.19
H       8.41      14.48      12.05
C       8.54      10.73       7.33
H       6.65      10.55      12.06
H       7.12      12.73      13.22
H       9.98      12.78       6.60
O       9.07      16.72       9.61
O      10.35      15.80      11.22
O       9.14      10.66       6.19
O       7.70       9.86       7.70
C       9.63      15.72      10.18
C       9.38      14.38       9.54
C       8.38      12.10       9.54
C       8.67      13.35      10.22
C       9.84      14.16       8.26
C       7.65      11.11      10.26
C       8.20      13.54      11.55
