17

C      16.05      13.20      26.38
C      15.99       6.95      30.52
C      17.16      11.31      27.73
C      14.92       8.85      29.18
C      16.07      11.99      27.19
C      16.01       8.17      29.71
C      15.34       9.99      28.46
C      16.73      10.16      28.46
H      13.90       8.51      29.32
O      17.18      13.74      26.12
O      14.90      13.62      26.02
O      17.14       6.50      30.89
H      19.03      11.07      28.03
O      14.85       6.44      30.78
O      18.44      11.70      27.57
S      14.54      11.23      27.57
S      17.54       8.92      29.34
