48

C      11.76       3.62       5.80
O       4.05      -3.81       4.83
C       5.89      -2.62       5.74
O      12.50       3.81       4.83
C      10.66       2.62       5.74
C       6.85      -2.44       6.74
C       9.69       2.44       6.74
H       2.22      -6.72      10.03
H      14.33       6.72      10.03
C       7.79      -1.42       6.64
C       8.76       1.42       6.63
H       4.07      -5.15       9.44
H      12.47       5.15       9.44
C       7.80      -0.56       5.53
C       8.75       0.56       5.53
H       2.82      -5.49       5.32
H      13.73       5.49       5.32
C       6.87      -0.77       4.50
C       9.68       0.77       4.50
H       1.08      -7.07       6.06
H      15.47       7.07       6.06
C       2.39      -6.42       9.00
C      14.15       6.42       9.00
C       5.92      -1.78       4.61
C      10.62       1.78       4.61
H       6.89      -3.10       7.61
H       9.66       3.10       7.61
C       3.42      -5.54       8.67
C      13.13       5.54       8.67
N       1.56      -6.95       8.08
N      14.99       6.95       8.08
H       8.54      -1.29       7.41
H       8.00       1.29       7.41
C       3.61      -5.18       7.32
C      12.94       5.18       7.32
N       4.62      -4.29       7.01
N      11.93       4.29       7.01
H       6.86      -0.09       3.64
H       9.69       0.09       3.64
C       2.74      -5.75       6.36
C      13.80       5.75       6.36
H       5.17      -1.94       3.83
H      11.38       1.94       3.83
C       1.75      -6.62       6.79
C      14.79       6.61       6.79
H       5.27      -4.10       7.78
H      11.27       4.10       7.78
C       4.79      -3.62       5.80
