32

H       8.94       7.05      12.25
H       8.84       7.25      14.76
H      12.93       5.95      14.97
H       7.84       6.17      18.47
H      11.95       7.42      18.54
H      11.82       7.62      21.05
H      13.39       5.60      11.38
H      14.11       5.50      12.97
H       7.32       6.51      22.06
H       6.63       6.02      20.53
C       9.81       7.10      22.65
C      10.88       6.15      10.74
C      10.95       6.32      12.20
C       9.80       6.78      12.87
C       9.73       6.89      14.24
C      10.89       6.56      14.99
C      12.06       6.17      14.36
C      12.13       6.02      12.95
C       8.71       6.47      19.06
C       9.90       6.74      18.39
C      11.05       7.16      19.09
C      10.97       7.27      20.47
C       9.79       6.97      21.18
C       8.61       6.57      20.47
N      10.96       6.63      16.40
N       9.83       6.62      16.98
N      13.29       5.57      12.39
N       7.45       6.24      21.09
O      10.95       7.04      23.23
O      11.96       5.82      10.12
O       9.75       6.30      10.16
O       8.69       7.28      23.25
