13

H       7.14       8.07      10.51
O       5.90       5.26      10.37
H       8.74       8.10      12.35
H       5.82       8.10      11.71
C       6.50       7.45      11.15
H       7.41       8.07      13.56
O       8.65       5.26      13.69
O       9.66       7.10      14.58
C       5.69       6.52      10.26
O       4.89       7.10       9.49
C       8.06       7.45      12.92
O       7.28       6.66      12.03
C       8.87       6.52      13.80
