20

H      17.74      15.09       5.88
H      18.66      16.60       5.84
H      14.49      16.66       6.09
H      15.36      15.12       6.06
C      15.24      16.11       4.09
C      17.65      16.13       3.93
H      17.46      18.72       5.90
H      15.70      18.73       6.03
C      16.44      18.22       4.01
C      17.75      16.11       5.47
C      15.33      16.13       5.63
C      16.55      18.22       5.55
N      16.41      16.82       3.50
N      16.58      16.82       6.06
H      15.24      15.09       3.69
H      14.33      16.61       3.73
H      18.50      16.66       3.47
H      17.62      15.12       3.51
H      15.52      18.72       3.67
H      17.29      18.73       3.54
