22

H       3.56       5.94       1.25
H       7.74       3.89       2.48
H       9.55       2.79       1.25
C       5.52       5.09      -1.42
C       4.42       5.55      -0.70
C       6.63       4.51      -0.72
C       7.72       3.89      -1.40
C       8.74       3.28      -0.70
C       5.48       5.29      -2.90
O       4.34       5.36       3.46
O       6.61       5.42       3.50
H       3.56       5.94      -1.25
H       7.74       3.89      -2.48
H       9.55       2.79      -1.25
O       4.34       5.36      -3.46
O       6.61       5.42      -3.50
C       5.48       5.29       2.90
C       5.52       5.09       1.42
C       4.42       5.55       0.70
C       6.63       4.51       0.72
C       7.72       3.89       1.40
C       8.74       3.28       0.70
