30

O       6.74       6.52       6.98
O       5.98       8.65       6.93
H       5.41       9.43       4.82
H       5.29       9.55       2.34
H       5.93      10.95      -1.87
H       5.94       6.64      -1.88
H       6.34       6.76       0.08
H       6.05       9.82       0.25
O       6.67       9.87      -6.58
O       6.11       7.69      -6.66
C       6.39       7.58       6.37
C       6.28       8.79      -6.04
C       6.44       7.56       4.87
C       5.84       8.64       4.20
C       5.78       8.71       2.82
C       6.32       7.68       2.02
C       6.92       6.59       2.68
C       7.01       6.52       4.09
C       6.23       7.73       0.57
C       6.08       8.83      -0.21
C       5.97       9.99      -2.39
C       6.02       8.80      -1.66
C       5.98       7.60      -2.39
C       5.98       7.59      -3.78
C       6.05       8.79      -4.55
C       5.97       9.99      -3.79
Br       7.96       5.07       4.85
Br       7.69       5.20       1.62
Br       5.81       5.83      -4.50
Br       5.71      11.72      -4.55
