20

C      12.87      -0.48      28.34
C      14.93       0.62      26.58
C      14.00       0.19      28.81
C      13.80      -0.05      26.09
C      14.98       0.72      27.98
C      12.80      -0.58      26.93
C      14.69       0.65      30.08
C      15.81       1.25      29.13
H      14.13       1.39      30.67
H      15.02      -0.15      30.75
H      16.80       0.80      29.24
H      15.91       2.34      29.16
C      15.99       1.20      25.71
O      16.94       1.81      26.32
O      15.87       1.05      24.45
C      11.83      -1.03      29.26
O      12.04      -0.85      30.51
O      10.83      -1.63      28.73
F      13.59      -0.23      24.77
F      11.78      -1.20      26.31
