12

O      16.01      10.35      18.45
O      13.79       7.51      13.78
C      15.11       9.97      17.64
O      12.75       8.28      15.59
C      17.23       9.20      14.88
N      16.96       9.75      16.07
C      15.10       8.81      15.24
N      16.14       8.62      14.34
C      13.80       8.17      14.86
H      18.21       9.23      14.41
O      13.88       9.96      17.94
C      15.62       9.51      16.32
