30

C       7.25       6.36       7.71
C       7.03       8.88       7.77
C       6.71       8.92       6.26
C       5.58       7.74       3.20
C       6.50       7.55       8.38
C       7.14       6.45       6.17
C       6.14       7.56       5.79
C       4.80       7.29       6.54
C       5.00       7.41       8.06
C       5.87       7.61       4.37
C       6.74       7.49       9.81
C       6.99       7.38      10.99
C       5.06       8.09       1.91
O       7.12       6.01      12.86
O       8.29       7.96      12.82
O       5.41       9.20       1.42
O       4.22       7.26       1.38
H       8.11       6.67       5.71
H       8.29       6.37       8.04
H       6.56       9.72       8.30
H       8.11       8.94       7.96
H       7.61       9.15       5.67
H       5.97       9.71       6.04
H       4.60       6.53       8.59
H       4.47       8.29       8.46
H       4.44       6.29       6.25
H       6.80       5.43       8.09
H       6.79       5.50       5.75
H       4.06       8.02       6.18
C       7.48       7.10      12.31
