20

H       5.28      11.49       7.23
H       9.00      14.34       8.80
H       4.52      15.01       7.43
H       3.93      13.41       7.11
H       9.69      10.78       8.76
H      10.22      12.32       9.32
C       7.37      10.03       7.85
C       6.92      15.78       8.20
C       6.99      14.31       8.09
C       7.30      11.51       7.92
C       5.90      13.52       7.62
C       8.40      12.31       8.37
C       6.10      12.13       7.57
C       8.19      13.69       8.45
N       4.71      14.05       7.18
N       9.65      11.79       8.68
O       6.28       9.39       7.65
O       5.78      16.35       8.04
O       8.00      16.42       8.44
O       8.51       9.47       8.00
