16

H      10.55      11.31       5.06
H      10.55      13.82       5.23
H       6.25      13.82       5.23
H       6.25      11.30       5.06
C       9.62      11.87       5.10
C       9.62      13.26       5.19
C       7.18      13.26       5.19
C       7.18      11.87       5.10
C       8.40      11.17       5.06
C       8.40       9.68       4.99
C       8.40      13.95       5.24
C       8.40      15.45       5.30
O       9.54       9.10       4.97
O       9.54      16.02       5.32
O       7.27      16.02       5.32
O       7.26       9.11       4.97
