14

C      -0.35       6.46       6.05
C      -0.44       4.46       5.04
N       0.31       5.50       5.40
N      -2.43       5.36       5.92
N       0.34       7.70       6.51
N       0.15       3.42       4.17
H      -2.25       7.26       6.75
H      -2.39       3.48       5.02
O       0.04       8.70       5.85
O       1.03       7.63       7.52
O      -0.15       2.25       4.42
O       0.84       3.84       3.23
C      -1.72       6.42       6.29
C      -1.80       4.34       5.32
