33

H       5.94      -0.82      10.85
H       7.35      -2.14      11.95
H       6.95       4.42       7.32
H       8.24       1.76       6.51
H       4.38       3.52      10.97
C       5.51       4.55       9.18
C       8.12      -5.71       9.61
C       7.84      -4.99       8.43
C       7.51      -3.64       8.46
C       8.56      -7.13       9.56
C       7.40      -2.96       9.69
C       7.65      -3.68      10.89
C       8.01      -5.02      10.83
C       5.91       0.90      10.09
C       5.45       2.23      10.11
C       6.80       0.46       9.05
C       5.92       3.15       9.13
C       6.80       2.70       8.10
C       7.23       1.38       8.06
N       7.00      -1.64       9.87
N       7.27      -0.82       8.91
O       4.61       2.56      11.11
O       6.05       5.37       8.34
O       5.48       0.05      11.05
O       7.57      -3.08      12.11
O       7.29       3.51       7.12
O       8.08       0.98       7.07
O       9.49      -7.45      10.37
O       4.64       4.92      10.05
O       7.98      -7.88       8.71
F       8.23      -5.67      11.99
F       7.23      -3.02       7.30
F       7.94      -5.59       7.22
