34

O       5.26       7.07       2.95
O       2.99       7.01       2.80
O       5.62      11.26     -10.23
O       3.38      10.96     -10.42
C       4.16       7.17       2.31
C       4.25       7.54       0.86
C       5.48       7.93       0.31
C       3.10       7.56       0.06
H       6.36       7.90       0.95
C       3.18       7.97      -1.26
H       2.14       7.25       0.49
C       5.59       8.37      -1.01
H       2.29       7.99      -1.89
C       6.91       8.79      -1.58
H       7.69       8.79      -0.81
C       4.41       8.40      -1.81
H       6.86       9.80      -2.03
H       7.22       8.12      -2.39
C       4.45       8.86      -3.14
C       4.45       9.27      -4.30
H       2.58       8.74      -6.10
C       4.44       9.74      -5.63
H       7.34      10.15      -5.09
C       3.38       9.37      -6.50
H       6.28      11.26      -4.23
C       5.49      10.56      -6.12
H       7.19      11.82      -5.67
C       6.63      10.98      -5.23
H       6.27      11.57      -7.85
C       5.46      10.96      -7.46
H       2.55       9.51      -8.49
C       3.36       9.80      -7.82
C       4.42      10.58      -8.31
C       4.47      10.96      -9.76
