30

H       5.91      11.36      12.83
H       5.92      11.52      15.30
H       6.05       7.21      15.55
H       6.09       7.08      13.06
H       6.02      12.66      19.40
H       5.90       8.35      19.64
H       5.87       8.50      22.11
H       6.04      12.78      21.90
H       5.98       8.40      17.54
H       5.99      11.47      17.41
C       6.01       9.14      11.30
C       5.95      10.73      23.65
C       6.01       9.21      12.79
C       5.95      10.46      13.44
C       5.96      10.54      14.83
C       5.99       9.37      15.62
C       6.03       8.12      14.96
C       6.05       8.05      13.57
C       5.98       9.39      17.08
C       5.98      10.48      17.87
C       6.00      11.74      20.00
C       5.96      10.50      19.33
C       5.92       9.33      20.12
C       5.90       9.40      21.50
C       5.95      10.65      22.15
C       6.00      11.82      21.38
O       6.37       8.04      10.77
O       5.64      10.19      10.67
O       6.31      11.83      24.17
O       5.58       9.68      24.29
