42

O       4.52      -0.24      15.23
O       8.51      -4.10       9.89
O       8.88       1.06      14.73
H       4.59      -1.06      12.81
O       4.66      -1.73       8.02
H       8.34      -2.36      11.73
H       8.73       0.01      12.34
H       4.88      -0.31      10.12
H       4.33      -1.12      17.06
H       4.94       0.56      17.15
H       6.03      -0.76      16.58
H       8.83      -6.08      10.21
H       7.37      -5.76       9.23
H       7.35      -5.44      11.00
H       8.94      -0.67      15.89
H       7.90       0.62      16.56
H       9.65       0.80      16.63
H       5.92      -1.80       6.32
H       5.41      -0.16       6.86
H       4.24      -1.27       6.08
C       6.32       2.23      15.62
C       6.63      -3.88       7.67
C       5.42      -0.41      13.07
C       7.60      -2.20      10.94
C       5.42       0.20      14.33
C       7.58      -3.09       9.86
C       6.47       1.08      14.70
C       6.62      -2.95       8.83
C       7.71       0.82      14.06
C       5.65      -1.92       8.96
C       7.76       0.17      12.83
C       5.65      -1.08      10.06
C       6.58      -0.38      12.29
C       6.62      -1.20      11.06
C       4.99      -0.39      16.59
C       7.97      -5.41      10.09
C       8.83       0.41      16.04
C       5.10      -1.21       6.75
O       5.15       2.62      15.95
O       7.76      -4.20       7.17
O       7.39       2.84      15.96
O       5.50      -4.29       7.24
