28

C       5.17      20.35       8.06
N       9.27      25.10       2.41
C       7.78      21.36       8.23
C       7.49      23.83       2.67
C       5.89      20.22       9.27
H       6.55      23.36       2.42
N       8.11      24.66       1.82
C       7.04      21.53       7.03
C       7.22      20.71       9.32
C       5.73      21.00       6.97
C       5.28      19.71      10.43
C       8.25      23.69       3.86
C       7.55      22.26       5.94
C       7.92      22.92       4.98
C       4.71      19.44      11.48
H       5.50      20.28      14.19
H      10.22      24.73       4.27
H       1.94      18.64      12.33
C       4.04      19.40      12.72
H       5.16      21.12       6.05
N       2.40      19.41      14.26
C       4.51      19.91      13.94
H       7.78      20.61      10.24
C       9.37      24.52       3.63
H       4.15      19.97       8.01
C       2.69      19.07      12.99
H       8.79      21.75       8.29
N       3.52      19.92      14.84
