13

O       9.31      15.26      10.59
O       8.61      16.33      12.48
C      12.50      17.99       8.35
H      12.29      18.72      10.36
H      10.95      19.19       9.26
C      11.63      18.37       9.54
C       9.29      16.23      11.41
O      12.48      16.81       7.92
O      13.18      18.97       7.90
O      10.90      17.23       9.95
C      10.16      17.45      11.14
H       9.50      18.33      11.04
H      10.84      17.61      11.99
