44

C       1.78      10.68      10.52
C       2.37       4.80       9.39
C       2.22       7.09      13.91
C       4.16       8.43       6.34
C       4.47      10.97       8.99
C       4.61       4.74      11.32
N       3.35      10.26       8.34
N       3.60       5.53      12.00
O       3.28      10.33      13.85
O       1.99       5.30       6.27
O       1.05      10.56      13.57
O       4.24       5.07       6.27
H       1.83      12.55      10.88
H       2.47       2.99       8.81
H       1.12       7.49      15.42
H       5.55       8.05       5.11
O       0.75      10.78       9.86
O       2.38      11.76      11.08
O       1.37       4.61      10.06
O       3.02       3.80       8.74
O       2.65       6.05      14.42
O       1.26       7.83      14.51
O       3.88       9.49       5.77
O       5.19       7.66       5.93
H       3.51       5.38      13.02
H       4.24       3.75      11.02
H       5.47       4.60      11.99
H       4.98       5.25      10.42
H       3.35      10.43       7.33
H       4.27      12.05       8.95
H       5.43      10.76       8.50
H       4.56      10.67      10.04
C       2.17      10.02      13.32
C       3.16       5.56       6.70
C       2.31       8.97      12.23
C       3.25       6.56       7.84
C       3.22       8.90       8.58
C       3.06       6.70      11.61
C       3.51       7.94       7.58
C       2.56       7.61      12.58
C       2.98       6.14       9.14
C       2.41       9.39      10.90
C       2.99       7.09      10.22
C       2.85       8.46       9.90
