36

H       3.44       3.15       4.81
H       3.47       1.12       6.21
H       0.72       3.00       8.95
H       0.71       5.01       7.55
H       0.73      -3.00       7.55
H       3.47      -1.12      10.30
H       3.44      -3.15      11.69
H       0.71      -5.01       8.95
H       1.56       0.02      10.55
H       1.34       1.75      10.24
H       2.96       1.11      10.42
H       1.57      -0.03       5.95
H       1.35      -1.76       6.26
H       2.97      -1.11       6.09
C       2.03      -5.43      11.26
C       2.03       5.43       5.24
C       2.06       4.21       6.08
C       2.83       3.09       5.71
C       2.82       1.94       6.49
C       2.06       1.86       7.68
C       1.34       3.01       8.06
C       1.32       4.15       7.27
C       2.04       0.63       8.52
C       2.04      -0.63       7.98
C       1.34      -3.01       8.44
C       2.07      -1.86       8.82
C       2.82      -1.95      10.01
C       2.83      -3.10      10.79
C       2.06      -4.21      10.42
C       1.32      -4.15       9.23
C       1.96       0.88      10.01
C       1.97      -0.89       6.50
O       1.06      -6.24      11.08
O       2.98      -5.59      12.11
O       1.06       6.24       5.42
O       2.98       5.59       4.39
