34

H       5.43       9.41       4.80
H       0.13      11.95       5.06
H       0.54       9.58       6.95
H       5.40      13.73       3.59
H       5.07      12.30       2.58
H       7.52      11.75       2.51
H       7.24      13.41       1.93
H       7.87      13.12       3.57
H      -0.42      13.73       6.04
H      -0.01      14.06       7.73
H      -1.77      12.41       8.48
H      -2.48      13.72       7.51
H      -2.23      12.13       6.78
C       3.38       7.75       5.43
C       3.36      13.63       5.29
C       3.35       9.23       5.31
C       2.20      10.01       5.52
C       5.76      12.72       3.33
C       7.18      12.75       2.80
C      -0.41      13.29       7.05
C      -1.80      12.85       7.48
C       4.51       9.95       4.99
C       4.54      11.35       4.89
C       3.39      12.14       5.19
C       2.24      11.40       5.46
C       0.77      11.56       5.86
C       0.76       9.98       5.96
I      -0.72       9.01       4.66
O       2.28       7.16       5.67
O       0.55      12.22       7.08
O       4.51       7.17       5.28
O       2.24      14.19       5.02
O       4.42      14.23       5.66
O       5.75      11.87       4.50
