32

H       3.38      16.62      20.17
H       3.51      18.79      21.41
H       0.94      18.48      17.17
H       0.94      24.89      24.57
H       3.37      26.76      21.56
H       3.51      24.59      20.33
H       0.89      21.70      18.87
H       0.26      20.80      17.59
H       0.89      21.68      22.86
H       0.26      22.58      24.15
C       2.05      27.22      23.88
C       2.05      16.16      17.85
C       2.15      17.44      18.60
C       2.88      17.51      19.80
C       2.95      18.71      20.48
C       2.35      19.88      19.96
C       1.62      19.81      18.74
C       1.52      18.58      18.08
C       2.43      21.12      20.63
C       2.43      22.25      21.11
C       2.35      23.50      21.78
C       1.62      23.57      23.00
C       1.52      24.80      23.66
C       2.15      25.94      23.14
C       2.87      25.87      21.94
C       2.95      24.66      21.26
N       1.05      20.95      18.20
N       1.05      22.42      23.54
O       1.07      27.35      24.70
O       2.95      28.10      23.68
O       1.08      16.02      17.04
O       2.96      15.28      18.06
