32

H       3.03       2.71      14.12
H       5.97       2.97      17.47
H       5.96       6.06      13.61
H       4.82       3.86      13.42
H       4.64      -1.20      16.68
H       6.00       0.88      16.65
C       1.40       0.67      13.77
C       7.35       5.15      18.04
H       1.22       1.68      13.39
O       1.46      -1.93      14.59
H       1.50      -0.02      12.91
H       7.07       4.38      18.78
O       8.18       7.28      16.54
H       7.09       6.14      18.44
O       2.64      -2.52      16.44
H       8.44       5.15      17.93
O       6.99       7.91      14.71
H       0.52       0.32      14.32
C       2.36      -1.72      15.48
C       7.32       7.07      15.62
C       3.11      -0.44      15.39
C       6.64       5.74      15.62
C       2.65       0.66      14.61
C       3.41       1.84      14.66
C       6.67       4.86      16.73
C       6.00       3.64      16.60
C       5.96       5.36      14.45
C       5.31       4.14      14.35
C       4.31      -0.33      16.11
C       5.05       0.84      16.11
C       4.60       1.96      15.39
C       5.32       3.25      15.44
