40

H       3.21      29.54      12.81
H       3.26      30.73      10.65
H       0.96      33.93      12.40
H       0.96      30.73       9.69
H       3.21      32.58       5.68
H       3.26      33.85       7.79
H       0.96      34.69       8.28
H       3.21      37.24      11.88
H       3.26      34.77      11.93
C       2.02      38.86      10.08
C       2.02      30.28      15.12
C       2.02      30.21       5.17
C       2.70      30.49      12.71
C       2.74      31.17      11.50
C       2.10      32.42      11.36
C       1.45      32.97      12.47
C       1.45      32.30      13.69
C       2.05      31.04      13.83
C       1.45      31.16       8.82
C       1.45      30.44       7.63
C       2.05      30.95       6.47
C       2.70      32.19       6.56
C       2.74      32.90       7.75
C       2.10      32.40       8.90
C       1.45      35.23       9.08
C       1.45      36.62       9.05
C       2.05      37.37      10.07
C       2.70      36.67      11.10
C       2.74      35.28      11.12
C       2.10      34.54      10.11
N       2.12      33.12      10.12
Cl       0.71      33.06      15.05
Cl       0.71      28.88       7.61
Cl       0.71      37.42       7.71
O       2.98      39.47       9.51
O       1.04      39.41      10.68
O       1.04      29.48      15.30
O       2.98      30.47      15.93
O       1.04      30.45       4.39
O       2.98      29.41       4.93
