26

O      10.28       3.41      15.37
O      13.33       2.07      26.07
O      14.25       4.14      26.16
H      10.08       2.52      17.65
H      13.05       5.78      21.71
H      13.65       5.51      24.11
H      10.66       2.32      20.06
H      12.18       1.56      21.48
H      12.71       1.33      23.90
H      13.69       5.35      19.57
H      13.03       5.59      17.17
O      11.52       5.30      15.26
C      11.53       4.06      17.27
C      10.87       3.13      18.08
C      11.21       3.02      19.43
C      12.22       3.82      19.99
C      12.88       4.74      19.16
C      12.54       4.87      17.82
C      12.99       4.79      22.18
C      13.32       4.65      23.52
C      12.77       2.30      23.40
C      12.47       2.44      22.06
C      12.57       3.69      21.42
C      11.10       4.27      15.87
C      13.20       3.40      24.15
C      13.60       3.19      25.56
