30

O      -1.13       4.82      23.35
O      -5.00       0.71      20.13
O      -3.11      -0.35      20.70
H      -1.83       7.46      25.99
H      -4.86       5.22      28.07
O      -1.24       2.72      25.71
H      -4.81       3.49      26.27
H      -5.12       2.99      21.12
H      -4.75       4.68      22.91
H      -2.47       0.28      23.14
O      -1.28       7.00      23.62
N      -1.57       5.83      23.93
C      -2.50       6.60      26.06
N      -1.91       1.82      25.19
C      -3.35       7.43      28.28
C      -3.33       6.43      27.16
C      -4.18       5.32      27.22
O      -2.47       8.35      28.33
C      -4.16       4.36      26.21
C      -3.29       4.47      25.12
C      -2.49       5.63      25.06
C      -3.98       0.56      20.88
C      -3.81       1.54      22.00
O      -1.86       0.62      25.52
O      -4.29       7.32      29.14
C      -4.46       2.77      21.96
C      -4.25       3.72      22.96
C      -3.39       3.46      24.04
C      -2.80       2.18      24.09
C      -2.99       1.23      23.09
