25

O       5.11      -6.47      11.09
O       5.72      -5.69      13.14
O       1.81      -1.32      13.12
O       0.88      -1.96      11.14
H       3.16      -5.84      13.50
H       2.79      -5.94      11.75
H       3.63      -3.60      11.46
H       1.23      -4.27      11.88
H       1.45      -3.84      13.60
H       2.94      -3.79      15.20
H       4.50      -2.87      16.87
H       6.66      -1.85      16.15
H       7.21      -1.71      13.73
H       5.62      -2.60      12.04
C       4.87      -5.92      12.22
C       3.45      -5.49      12.49
C       3.30      -3.94      12.45
C       1.79      -3.63      12.57
C       1.46      -2.19      12.25
C       4.17      -3.26      13.49
C       3.87      -3.32      14.86
C       4.75      -2.81      15.81
C       5.96      -2.22      15.41
C       6.26      -2.14      14.05
C       5.37      -2.65      13.10
