26

O      10.57      15.96       1.06
O      11.61      16.99      -0.67
H      15.47      14.29       1.45
H      14.32      13.28       2.34
H      12.78      15.04       2.30
H      13.93      16.02       1.37
H      11.17      13.52       1.11
H      11.13      13.46      -0.66
H      12.73      11.78       1.12
H      12.70      11.74      -0.65
H      15.46      14.26      -1.09
H      14.36      13.21      -1.96
H      12.75      14.90      -2.00
H      13.88      15.97      -1.16
C      15.31      11.88       0.23
C      11.48      16.05       0.17
C      14.45      13.89       1.43
C      13.42      15.05       1.40
C      12.51      14.92       0.15
C      11.80      13.55       0.21
C      12.84      12.41       0.22
C      14.27      12.99       0.19
C      14.44      13.85      -1.08
C      13.39      14.98      -1.11
O      16.30      11.99      -0.57
O      15.14      10.93       1.07
