38

H       0.01       8.13       9.01
H       1.59       8.49       9.81
O      -1.04       7.46      15.32
O      -2.18       8.38      13.60
O       2.31       5.68       9.13
O       1.06       3.78       9.21
H       1.05       0.87      10.82
H       0.63       0.58      12.52
H      -0.55       0.22      11.25
H      -1.17       2.39      12.34
H      -0.68       2.68      10.67
H       1.68       3.15      11.53
H       1.05       3.09      13.17
H      -0.87       4.54      17.14
F      -1.42       9.37      10.79
F       0.50       9.85      11.77
H       1.40       4.15      15.08
H       0.79       5.70      15.65
H      -1.51       5.08      14.80
H      -0.83       3.63      14.09
H      -0.31       2.96      16.56
H       0.78       4.00      17.51
C       1.42       4.94       9.66
C       0.45       6.87      10.82
C       0.73       5.51      10.85
C       0.41       4.79      12.02
C      -0.23       5.45      13.12
C      -0.55       6.82      13.04
C      -0.21       7.49      11.86
C      -0.19       8.83      11.14
C       0.57       8.13       9.96
C      -1.30       7.60      14.06
C       0.78       3.33      12.13
C      -0.31       2.35      11.65
C       0.23       0.93      11.56
C      -0.59       4.66      14.36
C       0.50       4.67      15.45
C      -0.00       4.01      16.74
