28

H       3.53       5.05       4.97
H       3.20       5.28       2.52
H       7.49       5.04       1.97
H       2.66       5.57      -1.88
H       6.64       5.55      -4.85
H       6.95       5.30      -2.39
C       4.42       5.88      -6.24
C       5.77       4.75       6.35
C       5.67       4.93       4.87
C       4.39       5.06       4.30
C       4.20       5.19       2.93
C       5.32       5.18       2.06
C       6.61       5.06       2.61
C       6.76       4.94       3.99
C       5.15       5.27       0.66
C       4.99       5.33      -0.55
C       4.83       5.42      -1.95
C       3.55       5.55      -2.51
C       3.41       5.68      -3.89
C       4.51       5.69      -4.76
C       5.78       5.54      -4.18
C       5.95       5.41      -2.81
O       3.27       5.82      -6.80
O       4.67       4.49       6.94
O       6.91       4.84       6.90
O       5.53       6.10      -6.83
F       8.02       4.81       4.45
F       2.15       5.84      -4.36
