13

C      15.38       7.25      10.40
O      14.84       8.57      12.30
C      13.97       9.70      14.19
H      15.93       8.85      14.05
H      15.69      10.32      13.06
H      15.63       9.38      10.54
H      16.79       8.43      11.54
O      14.29       6.66      10.66
O      16.23       6.93       9.51
O      12.92       9.05      13.93
O      14.12      10.59      15.09
C      15.74       8.50      11.20
C      15.23       9.39      13.40
