48

H       6.13      11.34      15.53
H       4.62      10.43      15.42
H       4.76      11.76      16.58
H       4.96       9.61      17.81
H       6.51      10.44      17.87
H       9.40       4.66      16.84
H       7.87       3.76      16.72
H       9.24       3.34      15.67
H       7.51       4.68      14.39
H       9.06       5.50      14.45
H       8.45      11.16      16.80
H       9.81      10.03      16.90
H       9.87      11.38      15.76
H       9.36       9.30      14.49
H       7.95      10.36      14.45
H       4.20       5.09      15.38
H       5.56       3.96      15.48
H       4.70       7.74      15.35
H       4.14       3.74      16.53
H       6.07       4.75      17.82
H       4.67       5.82      17.79
H       9.33       7.37      16.92
C       7.01       7.56      21.57
C       7.00       7.62      10.70
C       7.74       8.63      15.68
C       6.28       6.49      16.59
C       6.46       8.72      16.61
C       7.57       6.40      15.66
C       7.02       7.55      20.13
C       6.99       7.60      12.14
C       8.30       7.45      16.56
C       5.73       7.66      15.71
C       7.05       7.54      17.50
C       6.98       7.57      14.77
C       7.04       7.54      18.91
C       6.98       7.59      13.36
C       5.80       9.94      17.18
C       5.30      10.92      16.12
C       8.21       5.17      15.08
C       8.71       4.18      16.14
C       8.57       9.75      15.13
C       9.21      10.63      16.21
C       5.45       5.37      17.15
C       4.80       4.49      16.08
O       8.14       7.53      22.15
O       5.86       7.54      10.12
O       5.86       7.60      22.14
O       8.13       7.72      10.13
