45

C       4.21      11.03       3.33
C       3.27      11.73       2.54
C       2.51      11.07       1.58
C       2.65       9.68       1.41
C       3.50       8.96       2.27
C       4.27       9.63       3.21
C       0.99       7.45      -1.63
C       1.04       6.66      -2.77
C       1.30       8.82      -1.72
C       1.46       7.20      -4.01
C       1.59       8.60      -4.11
C       1.47       9.41      -2.98
H       1.62       7.31      -7.06
H       5.63      10.20       5.82
C       5.64      13.90       1.93
H       0.81       5.59      -2.70
H       0.76       7.02      -0.66
H       3.58       7.88       2.12
H       4.98       9.06       3.82
H       1.88       9.05      -5.06
H       1.81      11.62       0.94
H       1.65      10.48      -3.04
H       3.16      12.81       2.68
S       3.43       4.43      -3.40
N       3.28       4.76      -6.04
N       2.86       5.60      -7.00
H       5.49      15.00       3.68
H       5.25      14.74       1.33
N       6.42      12.13       6.02
H       5.22      12.97       1.53
H       6.74      13.87       1.81
N       6.33      13.31       5.30
N       2.11       8.94       0.35
N       1.62       9.63      -0.61
N       5.23      14.09       3.32
H       3.08       6.15      -2.17
O       2.40       3.72      -2.69
O       4.66       3.79      -3.76
O       3.88       5.70      -2.54
C       2.78       5.18      -4.86
C       2.08       6.55      -6.45
C       1.98       6.33      -5.06
C       5.71      11.19       5.39
C       5.53      13.08       4.23
C       5.10      11.73       4.25
