30

H       1.77      11.79      19.53
H      -1.77       5.53      23.07
H      -2.91       8.10      19.21
H       2.91       9.22      23.38
H      -2.88       6.49      21.07
H       2.88      10.83      21.53
C      -0.00       5.17      24.94
C       0.00      12.15      17.66
C       0.99      11.03      19.62
C      -0.99       6.29      22.98
C      -0.04      11.04      18.67
C       0.04       6.28      23.93
C      -1.04      10.05      18.74
C       1.04       7.27      23.86
C      -1.06       9.10      19.79
C       1.06       8.22      22.81
C      -0.01       9.13      20.77
C       0.01       8.19      21.83
C       1.03      10.10      20.66
C      -1.03       7.21      21.94
C      -2.09       8.11      19.94
C       2.09       9.21      22.66
C      -2.08       7.22      20.97
C       2.08      10.10      21.63
I      -2.44       9.81      17.16
I       2.44       7.51      25.44
O       1.11       4.69      25.32
O      -1.11      12.63      17.28
O      -1.15       4.77      25.31
O       1.15      12.55      17.29
