69

C       2.47      -2.14      18.26
C       3.15      -3.36      18.15
C       3.91      -3.62      17.01
C       1.50      -2.79      20.34
C       0.40      -2.32      21.30
C       0.88      -1.14      22.15
C      -0.00      -3.50      22.20
C       0.57      -7.85      26.96
C       0.72      -6.81      25.91
C       1.95      -6.18      25.67
C       2.07      -5.23      24.66
C       0.95      -4.88      23.89
C      -0.28      -5.51      24.12
C      -0.38      -6.47      25.12
C       4.91      -2.95      14.83
O      -0.75       3.73      27.43
O       1.24       4.31      26.61
O      -0.18      -0.81      23.05
O       5.52      -4.05      14.72
O       5.11      -1.98      13.99
O       1.71      -1.78      19.34
O      -0.50      -8.51      27.07
O       1.58      -8.09      27.75
O       1.15      -3.92      22.94
O      -1.21      -2.93      19.63
O      -5.73      -1.00      15.53
O      -5.16      -3.01      14.71
H      -4.47      -0.39      17.61
H      -2.77      -0.68      19.40
H      -1.78      -4.57      17.79
H      -3.49      -4.23      15.98
H      -1.66      -1.63      21.20
H      -0.59      -0.96      19.93
H       2.10       2.75      24.84
H       1.97       0.87      23.23
H      -1.93      -0.16      24.77
H      -1.79       1.76      26.37
H       3.38      -0.74      15.29
H       1.97      -0.27      17.30
H       3.11      -4.10      18.95
H       4.45      -4.56      16.91
H       2.43      -2.98      20.89
H       1.17      -3.72      19.86
H       1.78      -1.42      22.72
H       1.13      -0.28      21.51
H      -0.79      -3.17      22.89
H      -0.39      -4.32      21.58
H       2.81      -6.45      26.28
H       3.02      -4.74      24.46
H      -1.16      -5.27      23.52
H      -1.33      -6.98      25.31
C      -5.05      -2.05      15.59
C      -4.07      -2.28      16.69
C      -3.87      -1.30      17.66
C      -2.92      -1.47      18.66
C      -2.17      -2.65      18.70
C      -2.38      -3.66      17.74
C      -3.32      -3.47      16.74
C      -0.83      -1.87      20.51
C       0.26       3.54      26.62
C       0.17       2.37      25.71
C       1.22       2.11      24.82
C       1.15       1.05      23.92
C       0.00       0.24      23.91
C      -1.05       0.48      24.80
C      -0.97       1.55      25.69
C       4.00      -2.69      15.98
C       3.31      -1.47      16.09
C       2.53      -1.20      17.21
