16

H       0.69       0.65       8.43
H      -3.53       0.82       9.26
O      -2.67      -4.00       8.65
H       0.57      -1.86       8.42
O      -2.48       2.97       8.62
O      -0.23       2.93       8.92
O      -0.42      -4.01       8.89
C      -1.55      -3.43       8.79
F      -3.86      -1.73       9.38
C      -1.37       2.37       8.80
C      -1.53      -1.93       8.83
C      -1.41       0.88       8.83
C      -2.67      -1.15       9.09
C      -0.25       0.13       8.61
C      -2.63       0.24       9.07
C      -0.32      -1.26       8.60
