86

H      -5.35       0.48      13.65
H      -6.34       2.26      12.23
H      -8.12      -0.76       9.70
H      -7.18      -2.53      11.19
H      -8.24       3.20      11.65
H      -5.89      -0.59       7.45
H      -5.32       1.12       7.43
H      -5.61       0.27       8.99
H     -10.64       6.26       6.86
H     -11.18       4.81       7.77
H     -10.57       6.25       8.66
H     -11.91       1.57       7.03
H     -10.90       0.76       5.79
H     -10.20       1.16       7.39
H     -10.35       4.36      11.97
H     -10.79       6.35      13.40
H      -8.36       8.77      10.83
H      -7.92       6.79       9.36
H      -7.96       3.04       2.42
H      -4.69       1.50       4.84
H      -2.68       1.11       3.42
H      -3.99       4.19       0.72
H      -6.06       4.51       2.07
H     -10.89       5.03       3.48
H     -10.33       0.80       2.85
H     -12.23       0.79       1.24
H     -12.76       5.02       1.82
H      -4.41       4.51       7.12
H      -5.16       4.98       5.56
H      -6.09       5.14       7.08
C      -5.52      -2.19      13.30
C      -6.18      -1.13      12.49
C      -5.97       0.22      12.79
C      -6.52       1.21      11.99
C      -7.27       0.87      10.84
C      -7.51      -0.49      10.57
C      -6.99      -1.48      11.39
C      -7.76       1.95       9.97
C      -8.24       3.13      10.56
C      -8.71       4.22       9.83
C      -8.72       4.12       8.42
C      -8.22       2.97       7.78
C      -7.74       1.89       8.55
C      -5.94       0.38       7.95
C     -10.46       5.64       7.75
C     -10.90       1.49       6.61
C      -9.09       5.44      10.58
C      -9.91       5.32      11.72
C     -10.16       6.43      12.52
C      -9.58       7.67      12.21
C      -8.80       7.80      11.05
C      -8.56       6.69      10.24
C      -9.33       2.88       5.52
C      -8.16       2.94       6.30
C      -6.92       3.04       5.65
C      -6.82       3.06       4.25
C      -8.01       3.04       3.51
C      -9.26       2.95       4.12
C      -5.53       3.01       3.54
C      -4.53       2.09       3.94
C      -3.41       1.88       3.15
C      -3.22       2.62       1.98
C      -4.16       3.59       1.61
C      -5.31       3.77       2.37
C      -2.05       2.34       1.08
C     -11.19       4.10       2.99
C     -10.48       2.92       3.26
C     -10.87       1.72       2.64
C     -11.93       1.71       1.73
C     -12.60       2.91       1.43
C     -12.23       4.10       2.07
C      -5.34       4.54       6.55
C      -9.77       8.83      13.13
C     -13.67       2.92       0.39
O     -10.46       8.65      14.21
O     -14.10       1.81      -0.07
O     -14.09       4.04      -0.05
O      -6.06      -3.33      13.42
O      -9.26       9.95      12.84
O      -7.33       0.78       7.86
O      -1.65       3.31       0.36
O      -9.12       5.13       7.59
O     -10.57       2.80       6.12
O      -4.40      -1.90      13.86
O      -1.59       1.15       1.12
O      -5.78       3.17       6.43
