30

C       6.41      15.22       8.69
C       8.61      15.22       9.88
O       6.24       9.99       9.90
O       8.45      10.03       9.32
C       8.60      16.71      10.20
C       6.72      16.72       8.57
H       7.53      16.90       7.86
O       8.52      21.91       9.84
H       6.74      14.67       7.81
H       8.98      15.02       8.86
H       9.25      14.66      10.57
H       5.33      15.04       8.80
H       8.88      16.90      11.25
H       5.84      17.27       8.21
O       6.31      21.94       9.26
H       9.31      17.26       9.57
C       6.22      16.75      11.08
C       6.44      15.19      11.23
C       7.22      18.72       9.87
C       7.20      13.21       9.87
C       7.31      12.01       9.72
C       7.40      21.36       9.59
C       7.33      19.92       9.70
C       7.16      14.66       9.93
C       7.18      17.28       9.94
I       4.17      17.38      10.51
I       6.57      17.91      12.90
C       7.34      10.57       9.64
I       4.60      14.04      11.60
I       7.71      14.57      12.94
