12

H       2.98      -2.68      13.64
H       0.28      -1.61      10.67
C      -1.99      -1.32      12.41
C      -0.56      -1.70      12.68
C      -0.22      -2.02      13.99
C       1.96      -2.42      13.35
C       0.46      -1.81      11.73
N       1.03      -2.39      14.33
N       1.71      -2.16      12.07
H      -0.97      -1.99      14.78
O      -2.14      -0.64      11.31
O      -2.88      -1.65      13.21
