36

C       3.14      -2.90      26.96
C       3.89      -3.47      25.94
C       3.25      -4.29      25.00
C       1.88      -4.53      25.14
C       1.20      -3.94      26.20
C       4.05      -4.86      23.90
C       6.05      -5.11      22.86
C       4.23      -6.17      22.05
C       9.73      -4.98      21.97
C       8.38      -5.28      21.87
C       7.51      -4.81      22.87
C       8.05      -4.05      23.91
C       9.41      -3.79      23.93
C       1.54      -7.89      20.06
C       2.18      -7.20      21.09
C       3.55      -6.96      21.00
N       1.82      -3.13      27.09
N       5.34      -4.50      23.82
N       5.55      -5.94      21.94
N       3.45      -5.70      23.04
H       3.60      -2.25      27.69
H       4.96      -3.28      25.89
H       1.34      -5.15      24.43
H       0.13      -4.08      26.34
C       4.25      -7.43      19.88
C       3.54      -8.10      18.88
N       2.21      -8.32      18.97
H       8.00      -5.86      21.03
H       0.47      -8.09      20.08
H      10.45      -5.34      21.23
H       5.31      -7.26      19.76
H       4.04      -8.46      17.98
H       9.87      -3.21      24.73
H       7.40      -3.68      24.71
H       1.60      -6.84      21.94
N      10.24      -4.24      22.98
