28

H      10.26       1.95       0.38
H       8.24       0.04       3.64
H       6.28      -1.94      -0.32
H       8.24       0.03      -3.58
H      11.31       0.85      -1.21
H       7.35      -3.02       1.27
C      10.17       1.85       3.03
C       6.39      -1.86      -2.97
C       9.54       1.20       0.71
C       8.40       0.13       2.56
C       7.65      -0.64       1.69
C       7.83      -0.51       0.28
C       7.05      -1.24      -0.65
C       8.15      -0.13      -2.50
C       8.93       0.61      -1.64
C       8.80       0.43      -0.22
C       9.36       1.04       2.07
C       7.21      -1.07      -2.01
C       9.87       1.61      -2.26
C       6.63      -1.56       2.31
O      11.01       2.68       2.54
O       5.54      -2.68      -2.48
O       9.95       1.65       4.27
O       6.59      -1.64      -4.21
O      11.18       1.57      -1.86
O       9.51       2.40      -3.10
O       6.64      -2.87       1.92
O       5.84      -1.19       3.16
