24

O       1.05       6.39       7.95
O      -1.94       8.14      14.25
H      -0.85       7.61       9.18
H       1.12       6.49      11.27
H       0.55       8.72      12.28
H      -2.82       9.01       9.51
H      -5.22       8.54       9.15
H      -6.41       6.91      10.61
H      -5.17       5.76      12.44
H      -2.77       6.25      12.82
C      -1.11       8.90      13.68
C       1.40       6.08       9.16
C      -0.41       7.47      10.17
C       0.72       6.74      10.29
C      -1.17       7.92      11.34
C      -0.51       8.48      12.39
C      -2.63       7.67      11.20
C      -3.33       8.29      10.16
C      -4.69       8.03       9.95
C      -5.35       7.12      10.77
C      -4.66       6.48      11.80
C      -3.31       6.75      12.02
O      -0.71      10.04      14.16
O       2.28       5.22       9.47
