20

N       3.50      12.42      10.78
N       2.15      14.13      10.79
N       3.20      14.51      11.58
C       3.99      13.44      11.55
O      -1.91      18.96       9.86
H       4.93      13.39      12.09
C       2.34      12.89      10.31
H       1.67      12.36       9.64
O      -3.24      17.24       9.26
C       1.07      15.01      10.52
H       2.39      16.70      10.32
C       1.36      16.36      10.29
H       0.49      18.27       9.78
C       0.31      17.22      10.01
H      -2.30      15.04      10.08
C      -1.01      16.75       9.94
H      -0.44      13.45      10.63
C      -1.27      15.39      10.15
C      -0.24      14.51      10.45
C      -2.12      17.72       9.67
