28

H      -2.54       4.07      12.62
H      -2.30       4.05      15.11
H      -6.49       5.07      15.46
H      -2.10       3.96      19.62
H      -6.23       4.83      22.24
H      -6.28       5.07      19.75
C      -4.69       4.56      11.14
C      -4.21       4.12      23.82
C      -4.63       4.53      12.63
C      -3.40       4.27      13.26
C      -3.26       4.26      14.64
C      -4.38       4.55      15.46
C      -5.62       4.83      14.85
C      -5.72       4.81      13.47
C      -4.28       4.57      16.87
C      -4.23       4.58      18.09
C      -4.20       4.53      19.51
C      -3.01       4.18      20.18
C      -3.01       4.07      21.56
C      -4.16       4.29      22.34
C      -5.33       4.66      21.65
C      -5.36       4.78      20.27
O      -3.57       4.43      10.54
O      -3.10       3.92      24.42
O      -5.36       4.19      24.37
O      -5.82       4.72      10.58
F      -6.94       5.11      12.96
F      -1.83       3.71      22.13
