29

H       8.82       0.34      12.22
H       8.84      -2.71      15.28
H       6.10      -0.37      12.22
H       6.08       2.66      15.31
H       8.82      -0.36      17.63
H       8.87       2.65      14.51
H       6.09       0.36      17.61
H       6.10      -2.72      14.57
C       8.98      -0.53      12.84
C       8.38      -0.88      14.06
C       8.99      -2.09      14.41
C       5.94       0.50      12.85
C       6.54       0.84      14.07
C       5.92       2.04      14.43
C       8.99       0.50      16.99
C       8.39       0.84      15.77
C       9.01       2.04      15.40
C       5.94      -0.52      16.99
C       6.55      -0.88      15.78
C       5.94      -2.09      15.44
C       7.46      -0.02      14.92
N       9.89      -2.44      13.46
N       9.89      -1.47      12.49
N       5.01       2.39      13.50
N       5.02       1.43      12.52
N       9.92       2.39      16.33
N       9.91       1.44      17.32
N       5.04      -2.43      16.38
N       5.03      -1.46      17.34
