40

H       6.00      11.12       5.59
H       6.04       6.96      -5.52
H       5.01      11.12      -5.59
H       4.96       6.96       5.52
H       6.00      11.17       3.09
H       6.09       7.00      -3.02
H       5.01      11.17      -3.09
H       4.91       7.00       3.02
C       5.47       9.01      -7.19
C       5.53       9.01       7.19
C       5.50       9.03       5.70
C       5.51       9.03      -5.70
C       4.28       9.10       0.69
C       6.73       9.10      -0.69
C       4.31       9.11      -0.73
C       6.70       9.11       0.73
C       5.53       9.10      -1.43
C       5.48       9.10       1.43
C       5.77      10.22       5.01
C       5.82       7.87      -4.98
C       5.23      10.22      -5.01
C       5.18       7.87       4.98
C       5.77      10.25       3.62
C       5.85       7.90      -3.59
C       5.24      10.25      -3.62
C       5.16       7.90       3.59
C       5.46       9.08       2.91
C       5.55       9.08      -2.91
C       3.03       9.10       1.38
C       7.97       9.10      -1.38
C       3.08       9.11      -1.47
C       7.92       9.11       1.47
N       2.01       9.10       1.95
N       8.99       9.10      -1.95
N       2.09       9.12      -2.08
N       8.92       9.12       2.08
O       5.73       7.90      -7.77
O       5.81      10.10       7.79
O       5.28       7.90       7.77
O       5.20      10.10      -7.79
