16

C      30.52      17.37      27.58
Br      29.99      15.60      27.25
C      31.68      18.01      27.13
O      33.69      18.35      26.01
C      30.28      19.53      28.50
C      29.72      18.24      28.36
O      32.75      16.27      25.96
C      29.47      20.40      29.26
H      29.69      21.44      29.51
C      28.32      19.75      29.68
O      26.25      19.52      30.74
O      27.34      21.53      30.85
S      31.78      19.66      27.67
C      32.78      17.49      26.31
S      28.21      18.09      29.16
C      27.22      20.31      30.48
