24

N       2.07       1.42      12.23
H      -0.28      -2.57      15.71
C       2.57      -0.56      12.99
N       3.61      -0.26      12.20
H       1.25      -4.54      16.07
C       3.26       0.97      11.75
N       5.16       3.09       8.59
H       4.09      -2.83      13.56
C       3.99       1.73      10.75
H       6.12       1.30       8.13
C       5.45       1.79       8.83
H       5.15       0.04      10.05
C       4.90       1.09       9.90
H       4.15       4.78       9.26
C       4.34       3.73       9.46
H       3.05       3.64      11.17
C       3.73       3.09      10.52
C       0.71      -2.63      15.23
N       1.05      -1.61      14.42
C       1.56      -3.72      15.42
N       2.77      -3.82      14.84
C       3.11      -2.80      14.04
N       1.63       0.42      13.02
C       2.28      -1.70      13.82
