35

O       3.23      12.08       9.14
P       3.60      13.43       9.77
O       4.97      13.88       9.27
O       7.00       9.64      11.62
H       4.98      12.35      13.06
H       3.55      14.16      12.10
O       6.41      10.83      13.45
H       2.97      12.48      11.93
H       6.05      11.82      10.43
H       4.64      10.91      11.02
H       7.05      13.24      12.49
H       6.33      14.03      11.06
H       5.05      16.06      11.25
H       4.53      18.10      12.53
H       5.02      18.22      14.95
H       5.83      17.16      17.01
H       6.76      15.19      18.19
H       7.27      13.10      16.94
H       6.83      12.94      14.53
C       3.73      13.20      11.61
C       6.39      10.60      12.23
C       5.52      11.48      11.33
C       6.16      13.76      12.11
C       5.81      14.96      12.94
C       5.25      16.07      12.32
C       4.96      17.24      13.05
C       5.23      17.31      14.39
C       5.78      16.19      15.07
C       6.06      16.24      16.46
C       6.58      15.15      17.12
C       6.86      13.96      16.41
C       6.61      13.88      15.05
C       6.07      14.98      14.34
N       5.06      12.69      12.09
O       2.52      14.51       9.61
