44

C       1.40      24.03      23.36
C      -1.49      31.92      29.50
C       0.30      23.84      22.51
C      -0.36      32.24      30.26
H      -1.68      24.49      21.98
C      -1.19      28.22      27.06
C       1.24      27.83      25.74
H       1.72      31.82      30.62
H      -1.68      26.37      23.62
C      -1.05      27.19      26.13
C       1.10      28.86      26.66
H       1.82      29.98      28.96
H       2.26      23.38      23.24
C       0.16      26.97      25.45
C      -0.12      29.09      27.33
H      -2.42      32.46      29.65
H       2.19      27.69      25.23
H      -2.13      28.34      27.58
H       1.95      29.52      26.86
H      -1.89      26.53      25.95
C       3.26      24.07      25.44
C      -2.50      31.36      26.49
O       1.48      22.35      21.11
O      -1.56      33.72      31.66
O      -0.79      22.29      21.13
H       3.94      23.96      24.58
H       2.70      23.13      25.60
H       3.85      24.30      26.34
H      -1.66      30.99      25.89
H      -2.41      32.45      26.63
H      -3.45      31.14      25.98
O       0.70      33.84      31.62
O       2.36      25.17      25.28
O      -2.56      30.69      27.76
C       0.33      22.75      21.50
C      -0.42      33.34      31.26
C      -0.82      24.66      22.63
C       0.84      31.55      30.04
C      -0.82      25.70      23.56
C       0.89      30.53      29.10
C       0.25      25.90      24.44
C      -0.23      30.18      28.32
C       1.37      25.02      24.34
C      -1.42      30.92      28.53
