14

C       4.08       2.06      14.17
C       4.50       2.25      16.53
H       2.30       5.68      16.07
H       1.13       4.64      15.27
C       2.17       4.99      15.23
N       2.39       5.63      13.92
H       3.53       3.94      17.46
C       3.08       3.80      15.36
N       3.30       3.15      14.19
H       4.98       1.91      17.44
C       3.68       3.38      16.54
H       5.31       0.68      15.27
H       4.20       1.57      13.20
C       4.69       1.57      15.32
