24

C      -0.84       6.96       8.01
O      -1.90      11.50       5.71
C      -0.56       6.06       9.03
H      -1.79       6.84       2.33
O      -0.43       7.81      10.62
H      -2.25       9.32       2.40
C      -0.46       4.70       8.71
O      -0.24       5.63      11.31
H      -0.90       8.02       8.27
C      -0.65       4.29       7.39
C      -2.18      10.94       4.61
H      -1.51       9.26       6.61
C      -0.39       6.57      10.46
H      -0.26       3.97       9.50
H      -0.58       3.25       7.10
C      -1.75       7.40       3.27
C      -2.00       8.77       3.30
C      -1.92       9.45       4.52
N      -1.44       6.70       4.38
C      -1.58       8.73       5.66
N      -0.94       5.17       6.40
C      -1.03       6.50       6.71
C      -1.36       7.35       5.57
O      -2.63      11.49       3.57
