32

O       6.19      10.81      23.85
O       3.95      10.58      24.07
H       3.05       8.56      22.97
H       3.15       6.60      21.41
H       7.16       9.48      22.07
H       2.98       3.09      15.57
H       7.12       2.01      16.03
H       7.26       3.43      18.09
H       7.43       6.87      19.52
H       8.23       8.20      20.27
H       3.07       5.46      18.35
H       2.13       4.87      17.03
C       4.98       1.67      14.43
C       5.08      10.26      23.56
C       5.10       9.13      22.59
C       3.96       8.33      22.41
C       4.02       7.25      21.55
C       5.20       6.96      20.82
C       6.35       7.77      21.00
C       6.28       8.85      21.90
C       5.23       5.90      19.88
C       5.30       5.03      19.02
C       5.23       4.12      17.95
C       3.99       4.01      17.25
C       3.92       3.18      16.12
C       5.05       2.50      15.67
C       6.26       2.58      16.38
C       6.34       3.37      17.52
N       7.52       7.48      20.33
N       2.88       4.71      17.69
O       6.09       1.40      13.87
O       3.83       1.30      14.02
