16

C      18.55       9.76       3.91
C      18.43      13.36       4.19
C      18.50       9.63       5.29
C      18.50      13.46       2.81
C      18.45      12.01       4.59
C      18.53      11.11       3.51
S      18.41      11.17       6.10
S      18.58      11.92       1.99
C      18.51       8.42       6.13
O      18.56      14.54       0.74
O      18.60       7.30       5.54
O      18.44      15.80       2.64
O      18.43       8.61       7.40
Br      18.65       8.37       2.64
C      18.50      14.69       2.01
H      18.38      14.23       4.83
