20

C       4.64       8.91      14.58
C       5.07       7.67      15.06
H       6.32       2.12      13.49
H       5.47       4.31      12.71
H       6.43       5.89      16.63
H       7.22       3.61      17.24
H       5.47       6.20      12.02
H       4.65       8.43      11.33
H       4.38       9.72      15.25
H       5.14       7.53      16.13
N       6.80       2.79      15.39
N       4.51       9.17      13.26
C       6.32       2.99      14.15
C       5.86       4.23      13.72
C       5.87       5.32      14.60
C       6.37       5.09      15.89
C       6.82       3.82      16.25
C       5.39       6.65      14.15
C       5.23       6.93      12.79
C       4.78       8.19      12.39
