26

H       9.94       8.65       7.94
H       9.94      13.62       7.57
H       6.01      12.22       5.20
H       6.07       9.72       5.28
C       7.90       8.14       6.26
C       7.81      13.94       6.13
C       7.90       9.63       6.36
C       8.93      10.36       7.03
C       6.86      10.30       5.75
C       9.93       9.73       7.83
C      10.85      10.49       8.52
C       7.85      12.45       6.25
C       6.83      11.71       5.70
C       8.91      11.80       6.96
C       9.90      12.54       7.66
C      10.84      11.90       8.42
N      11.71       9.79       9.49
N      11.90      12.73       9.02
O       6.76       7.58       6.36
O       6.68      14.50       6.33
O       8.89      14.53       5.83
O       9.01       7.55       6.03
O      12.32       8.79       9.10
O      11.72      10.25      10.64
O      11.61      13.88       9.36
O      13.03      12.22       9.10
