14

H      -0.94       4.65      13.80
H      -0.43       7.35      12.41
H       1.26       4.12      12.56
H      -0.08       5.98      10.50
C       1.72       4.92       9.97
O      -1.80       8.44      14.20
C      -1.95       7.20      13.94
O      -2.90       6.45      14.40
C      -0.51       5.34      13.07
C      -0.93       6.62      13.04
C       0.55       4.87      12.19
O       2.75       4.25      10.39
C       0.67       5.31      10.92
O       1.55       5.29       8.76
