28

Br       8.23      11.90       8.98
Br       7.75      13.07       5.13
O       3.84       9.78      13.23
O       6.03       9.24      13.03
O       4.46      17.53       1.90
O       6.69      17.16       1.71
C       5.00       9.90      12.71
C       5.16      10.89      11.60
C       6.40      10.98      10.94
C       4.09      11.70      11.18
C       4.25      12.56      10.10
C       6.55      11.83       9.86
C       5.48      12.63       9.39
C       5.57      13.43       8.23
C       5.59      14.07       7.19
C       5.58      14.77       5.97
C       6.48      14.46       4.92
C       4.65      15.82       5.75
C       4.62      16.51       4.55
C       6.46      15.17       3.72
C       5.53      16.20       3.53
C       5.57      17.02       2.28
H       7.22      10.36      11.29
H       3.13      11.63      11.69
H       3.42      13.17       9.76
H       3.97      16.07       6.56
H       3.90      17.32       4.39
H       7.17      14.92       2.94
