24

N      15.45       3.10       0.39
N      10.41      11.83       0.39
H      12.49       5.80       1.25
H      13.64       3.80       1.25
H      11.27       7.91       1.25
N      16.40       3.65      -0.39
H      10.11       9.92       1.25
N      11.36      12.38      -0.39
H      14.32       9.68      -1.25
H      13.17      11.68      -1.25
H      15.54       7.56      -1.25
H      16.70       5.56      -1.25
C      14.12       6.50      -0.00
C      14.85       5.24      -0.00
C      12.69       8.98       0.00
C      11.96      10.24       0.00
C      12.90       6.65       0.69
C      14.50       4.03       0.64
C      12.21       7.85       0.69
C      10.74      10.55       0.64
C      13.91       8.83      -0.69
C      12.30      11.45      -0.64
C      14.60       7.63      -0.69
C      16.07       4.93      -0.64
