22

H       5.14       2.39      11.73
H       8.06      -2.35      12.05
H       9.42       2.27      11.97
H       3.78      -2.23      11.81
H       3.83       0.27      11.72
H       9.37      -0.23      12.06
O       7.00      -4.54      11.89
O       6.20       4.58      11.89
O       4.74      -4.47      12.03
O       8.47       4.51      11.75
C       5.89      -3.92      11.95
C       7.27       2.47      11.85
C       5.93      -2.43      11.93
C       4.76      -0.31      11.79
C       8.45       0.35      11.99
C       4.72      -1.68      11.84
C       7.32       3.96      11.83
C       8.48       1.72      11.94
C       7.15      -1.77      11.98
C       6.06       1.81      11.80
C       7.21      -0.35      11.94
C       5.99       0.40      11.84
