16

O       4.73       1.36       7.51
O       2.45       1.43       7.50
S       2.78       5.55       3.23
S       5.36       3.30       5.62
C       4.53       7.04       1.77
C       3.61       1.80       7.08
Cl       7.05       5.54       3.41
Cl       1.08       3.31       5.45
C       5.36       5.33       3.55
C       2.77       3.52       5.31
C       4.41       6.02       2.81
C       3.73       2.83       6.04
C       3.36       4.43       4.40
C       4.77       4.42       4.46
O       3.41       7.49       1.35
O       5.68       7.41       1.35
