35

C      12.02      18.98      19.97
O       8.23      21.72      20.95
C      11.38      19.92      20.78
O       9.99      21.75      22.37
C      15.09      13.73      21.45
O      14.48      13.36      22.51
O      16.24      13.35      21.07
C      14.36      14.69      20.56
F      10.59      17.17      16.11
C      14.98      15.22      19.42
C      14.29      16.10      18.58
F      10.22      15.97      17.91
C      12.98      16.48      18.88
F      11.89      15.47      16.58
C      12.36      15.95      20.02
F      13.63      17.52      16.03
H       8.42      20.12      19.13
H       9.55      18.47      17.68
F      14.04      18.90      17.70
C      13.04      15.07      20.85
H      13.03      18.66      20.22
C      12.15      17.42      17.99
F      12.32      19.24      16.39
H      11.88      20.34      21.65
C      11.21      16.51      17.14
C      13.03      18.27      17.02
C       9.38      21.35      21.34
H      16.00      14.92      19.20
C      10.08      20.33      20.48
H      14.81      16.48      17.70
C       9.44      19.79      19.36
H      11.34      16.24      20.27
C      10.08      18.86      18.55
H      12.56      14.66      21.74
C      11.37      18.44      18.85
