17

O       7.87       4.83       7.30
C       4.71       8.18       2.54
H       6.51       6.38       5.76
H       3.83       8.75       2.83
C       7.36       5.85       3.88
H       8.10       5.23       3.37
C       6.56       6.71       3.01
C       5.44       7.44       3.45
H       5.11       7.42       4.49
C       7.24       5.78       5.22
C       6.14       7.61       0.80
H       6.38       7.71      -0.26
C       8.07       4.90       6.07
C       6.91       6.83       1.65
N       5.03       8.25       1.22
H       7.78       6.30       1.26
O       9.02       4.21       5.49
