38

H       9.36       6.01      12.04
H       7.86       5.03      11.94
H       7.53       6.86      13.59
H       7.98       8.08      12.37
H       6.49       7.12      12.17
H      10.99       3.94       5.26
H      10.05       2.43       5.48
H      12.19       1.14       5.69
H      12.17       2.05       4.16
H      13.12       2.65       5.55
H       9.77       8.05      10.13
H      11.25       7.98       9.10
H      12.66       8.21      11.19
H      11.63       9.63      10.90
H      11.17       8.45      12.15
H       8.83       4.62       4.94
H       7.37       5.20       5.83
H       6.15       3.13       5.19
H       6.68       4.02       3.75
H       7.56       2.56       4.26
C       8.90       5.59       9.48
C      10.35       4.01       7.80
C      10.31       5.57       9.53
C       8.95       4.18       7.63
C       8.30       6.02      11.77
C       7.53       7.09      12.51
C      10.99       2.94       5.71
C      12.19       2.14       5.26
C      10.85       7.80      10.11
C      11.62       8.56      11.15
C       7.91       4.32       5.48
C       7.03       3.45       4.62
N      11.00       4.76       8.71
N       8.25       4.93       8.51
O       8.16       6.31      10.34
O      11.10       3.11       7.16
O      11.01       6.36      10.37
O       8.32       3.52       6.64
