14

C      -0.05      -7.47      13.02
C      -1.19      -7.66      10.82
C      -1.26      -6.36      10.45
C       1.01      -7.93      13.95
O      -3.03      -6.52       8.83
O      -1.65      -4.71       8.86
H       0.30      -9.02      11.65
H      -0.65      -6.63      13.35
H      -1.77      -8.40      10.26
H      -0.62      -5.62      10.92
C      -2.04      -5.84       9.31
O       0.86      -7.64      15.20
O       2.01      -8.56      13.46
C      -0.27      -8.10      11.85
