16

C      21.68       8.90      11.72
C      23.89       7.49      12.63
C      24.73       9.38      14.02
O      24.54      10.56      14.44
O      25.71       8.62      14.33
C      20.89       6.94      10.39
H      23.15       5.84      11.44
H      20.81       9.45      11.36
H      24.76       6.96      13.01
Cl      22.20      11.16      13.00
O      21.12       5.73      10.05
O      19.91       7.66      10.01
C      23.71       8.82      13.07
C      21.88       7.58      11.31
C      22.58       9.52      12.59
C      23.00       6.87      11.77
