20

O       9.58       7.31       6.07
O      11.78       7.13      -6.07
H      12.79       7.45      -1.29
H       8.57       6.99       1.29
C      10.71       7.17       5.50
C      10.65       7.26      -5.50
C      11.87       7.35      -0.72
C       9.49       7.09       0.72
C      10.65       7.23      -1.42
C      10.72       7.21       1.42
C       9.46       7.09      -0.66
C      11.90       7.34       0.66
C      10.65       7.24      -2.83
C      10.72       7.19       2.83
C      10.70       7.18       4.05
C      10.67       7.26      -4.05
Br      13.57       7.51       1.54
Br       7.79       6.92      -1.54
O      11.85       7.03       6.05
O       9.52       7.40      -6.05
