28

C       3.76       9.62      10.59
C       2.31       9.61      10.08
C       7.57      11.78       6.65
C       6.59      11.29       7.69
C       9.02      11.80       7.18
C       4.88      11.54       9.42
C       6.44       9.91       7.85
C       5.78      12.11       8.50
C       5.54       9.35       8.76
O       6.54       7.23       9.06
O       4.73      14.21       8.70
H       1.97      10.63       9.83
H       2.23       9.00       9.17
H       1.64       9.19      10.84
H       4.03       8.60      10.88
H       3.81      10.23      11.50
O       4.33       7.32       8.55
H       9.71      12.13       6.40
H       9.10      12.48       8.03
H       9.33      10.80       7.52
H       7.52      11.11       5.78
H       7.30      12.79       6.31
H       4.29      12.22      10.04
H       7.04       9.23       7.24
C       5.46       7.86       8.80
O       6.94      14.18       8.23
C       5.83      13.61       8.46
C       4.73      10.17       9.58
