42

C      23.53      22.71      22.39
C      23.04      21.56      22.92
C      21.61      19.45      28.47
C      21.70      19.34      27.12
H      24.32      20.94      20.05
H      25.49      24.81      21.62
C      18.58      23.99      24.72
C      19.37      23.52      25.70
H      16.07      24.51      23.21
H      18.11      26.36      26.56
H      21.08      16.48      28.32
H      22.61      19.25      31.29
N      26.13      23.62      19.99
N      25.76      22.39      19.49
H      22.92      19.62      24.76
H      20.01      21.48      27.33
H      21.08      23.34      23.60
N      16.31      26.76      25.52
N      15.66      26.18      24.45
H      23.23      23.66      22.85
H      23.42      20.60      22.54
N      21.81      16.28      30.30
N      22.29      17.16      31.25
H      21.42      20.43      28.91
H      22.00      18.38      26.69
H      18.70      23.56      23.72
H      19.20      23.85      26.73
C      24.78      21.90      20.28
C      24.48      22.81      21.30
C      25.36      23.88      21.06
C      16.40      25.13      24.04
C      17.54      24.99      24.85
C      17.43      26.05      25.77
C      21.51      16.98      29.19
C      21.78      18.34      29.40
C      22.26      18.40      30.72
C      22.13      21.50      24.06
C      22.22      20.43      24.96
C      21.50      20.43      26.17
C      20.62      21.50      26.43
C      20.42      22.52      25.49
C      21.20      22.53      24.32
