30

C       7.85       9.15      10.01
C       2.52       5.56       8.82
C       3.86       5.17       8.96
C       4.83       6.12       9.23
C       4.52       7.50       9.27
C       3.17       7.90       9.01
C       5.54       8.49       9.57
C       5.18       9.87       9.62
C       3.86      10.25       9.26
C       2.93       9.32       8.90
C       6.90       8.16       9.80
C       7.47      10.51      10.07
C       2.16       6.90       8.88
N       1.75       9.87       8.21
O       9.66       7.73      10.63
O       0.44       8.16       9.85
H       8.24      11.26      10.24
H       3.61      11.31       9.17
H       5.84      11.90       9.96
H       7.24       7.13       9.77
H       1.73       4.82       8.70
H       5.85       5.79       9.42
H       4.12       4.11       8.92
O      10.07       9.66       9.49
O      -0.13       6.45       8.45
C       9.30       8.81      10.05
C       0.70       7.21       9.04
O       1.38      11.01       8.51
O       1.24       9.18       7.31
C       6.15      10.86       9.91
