22

O      -3.86       9.52      14.07
O      -8.09      12.71       9.61
O      -6.80      11.66       8.07
H      -3.92       9.37      11.32
H      -4.16      12.98      14.44
H      -5.40      15.10      14.59
O      -2.49      11.33      14.03
H      -6.86      15.82      12.68
H      -7.15      14.38      10.72
H      -5.37      10.07       9.40
C      -3.50      10.64      13.60
C      -7.01      12.12       9.27
C      -4.82      13.28      13.63
C      -5.50      14.47      13.70
C      -6.33      14.87      12.63
C      -6.49      14.05      11.53
C      -5.84      12.80      11.43
C      -4.95      12.42      12.51
C      -4.28      11.16      12.44
C      -4.43      10.34      11.34
C      -5.25      10.72      10.27
C      -5.99      11.90      10.32
