26

O       4.89      16.42       3.94
O       5.55      14.46       3.03
O      -5.00      10.47       3.64
O      -5.71      12.46       4.45
C       4.67      15.21       3.54
C       3.27      14.70       3.65
C       2.25      15.50       4.20
C       0.95      15.01       4.28
C       0.62      13.72       3.82
C       1.66      12.94       3.28
C       2.96      13.41       3.20
C      -0.76      13.20       3.90
C      -1.01      11.81       3.87
C      -2.31      11.31       3.90
C      -3.40      12.19       4.01
C      -3.16      13.57       4.07
C      -1.87      14.06       4.00
C      -4.80      11.69       4.04
H       2.49      16.50       4.56
H       0.18      15.64       4.73
H       1.44      11.95       2.88
H       3.76      12.80       2.79
H      -0.18      11.11       3.82
H      -2.49      10.24       3.85
H      -4.02      14.24       4.13
H      -1.71      15.14       3.98
