20

H      11.22       7.04       7.19
H      11.77       3.02       7.20
H      12.30       5.27      10.96
H      11.62       7.35      12.13
H      10.74       9.29      10.84
H      10.56       9.14       8.36
C      13.68       4.59       8.18
C       9.89       3.94       7.81
C      11.79       6.02       9.00
C      11.93       6.12      10.39
C      11.54       7.29      11.05
C      11.04       8.38      10.32
C      10.94       8.29       8.93
C      11.31       7.12       8.27
C      11.37       3.87       7.75
C      12.19       4.78       8.30
O      14.18       3.62       8.84
O       9.37       4.66       8.72
O      14.29       5.43       7.45
O       9.26       3.23       6.95
