14

O       8.87       4.98      14.10
O       5.08      -4.99      14.31
H       8.48      -0.32      13.94
O       7.30      -4.88      13.78
H       5.46       0.31      14.15
C       6.17      -4.36      14.06
C       7.76       4.35      14.00
O       6.60       4.87      13.89
C       6.13      -2.92      14.08
C       7.80       2.91      14.00
C       6.36      -0.31      14.08
C       7.58       0.30      14.00
C       7.72       1.70      14.00
C       6.22      -1.71      14.09
