28

H       9.05      15.08       7.50
H       4.09      15.08       7.56
C       9.82      14.91      11.93
C       3.39      15.13      11.98
C       9.78      15.26       3.11
C       3.31      15.01       3.14
C       7.30      15.06       8.75
C       5.87      15.08       8.77
C       5.18      15.08       7.55
C       5.84      15.08       6.31
C       7.27      15.10       6.30
C       7.96      15.08       7.52
C       5.07      15.05       5.13
C       4.31      15.02       4.18
C       8.02      15.16       5.10
C       8.78      15.23       4.15
C       4.38      15.14      10.93
C       5.13      15.10       9.97
C       8.82      14.95      10.89
C       8.07      15.01       9.94
O      11.03      14.85      11.51
O       9.44      14.93      13.14
O       2.17      15.21      11.57
O       3.78      15.01      13.18
O      10.99      15.33       3.53
O       9.39      15.21       1.90
O       2.10      14.95       3.54
O       3.72      15.09       1.93
