20

H      25.69       8.63      11.81
H      24.84       9.43      10.47
H      23.16      10.39      12.09
H      24.00       9.59      13.44
Cl      20.00       5.39      12.12
Cl      22.02       4.26      10.19
C      20.71       8.22      13.47
C      24.69       5.96       9.73
O      19.71       7.57      13.88
O      21.03       9.41      13.82
O      24.77       4.72       9.45
O      25.49       6.88       9.34
C      23.60       6.44      10.64
C      21.64       7.56      12.50
C      23.76       7.68      11.27
C      21.43       6.31      11.85
C      22.83       8.21      12.16
C      22.39       5.76      10.95
C      24.70       8.86      11.39
C      23.65       9.46      12.41
