26

H       5.35       0.74       4.26
H       5.41       3.21       4.03
H       1.56       3.45       5.99
H       1.54       0.99       6.21
O       4.62      -1.34       5.41
H       4.81       5.10       3.19
O       2.40      -1.36       5.79
H       5.16       7.55       3.32
H       2.69       7.73       6.83
O       3.99       9.89       6.29
H       2.38       5.29       6.75
O       5.06       9.79       4.34
C       3.49      -0.77       5.50
C       3.45       0.71       5.26
C       4.53       1.35       4.63
C       4.54       2.73       4.50
C       3.50       3.52       5.01
C       2.40       2.87       5.61
C       2.38       1.48       5.73
C       3.59       5.00       4.98
C       4.35       5.67       4.00
C       4.54       7.04       4.06
C       3.97       7.80       5.09
C       3.16       7.15       6.03
C       2.98       5.78       5.98
C       4.32       9.24       5.21
