16

S      11.15       7.33      12.93
S      14.75       8.93      11.48
C      10.14       9.53      14.28
O      15.67       5.52       9.76
C      12.40       9.61      13.04
C      13.50       6.65      11.36
C      11.24       8.98      13.47
C      14.66       7.28      10.94
C      12.67       7.49      12.13
C      13.24       8.77      12.28
F      12.73      10.88      13.32
C      15.76       6.74      10.13
F      13.17       5.38      11.09
O      10.24      10.74      14.64
O       9.19       8.71      14.54
O      16.71       7.56       9.87
