38

N       3.51       6.00       6.96
N       4.15       7.19       7.21
H       9.25       9.86      -3.64
H       3.59       4.57       5.42
N       7.46      12.31      -7.07
H       4.18       5.09       2.98
H       7.37       7.43       4.68
H       8.20       7.62       0.10
H       4.65       8.25      -2.74
H       5.17       5.36       0.74
H       5.03       9.95      -4.49
H       5.38       6.93      -0.92
H       8.88       8.18      -1.88
H       8.34       7.73       2.43
N       8.46      12.76      -6.27
H       5.62       8.31       6.20
H       5.97      10.83      -6.85
H       9.20      12.24      -4.34
C       8.47      12.04      -5.12
C       7.43      11.10      -5.16
C       3.98       5.50       5.80
C       4.96       6.36       5.27
C       7.16      10.07      -4.16
C       5.02       7.41       6.22
C       8.23       9.53      -3.42
C       8.02       8.58      -2.43
C       6.72       8.12      -2.13
C       5.66       8.60      -2.94
C       6.82      11.33      -6.41
C       5.88       9.56      -3.92
C       5.65       5.83       1.60
C       5.10       5.67       2.87
C       6.87       6.99       3.82
C       7.43       7.15       2.55
C       6.78       6.65       1.41
C       6.41       7.30      -0.97
C       7.21       7.15       0.11
C       5.66       6.31       3.99
