28

C      11.99      17.60      14.92
C       7.43      20.96      13.52
C      10.10      18.24      16.98
C       8.61      19.34      11.46
O      11.17      18.51      10.99
O      11.69      16.76      12.33
H      12.33      17.96      15.90
H      12.78      17.84      14.19
H      11.92      16.51      14.96
O       6.72      20.42      16.11
H       7.67      21.39      12.54
H       7.42      21.78      14.25
H       6.41      20.56      13.48
O       8.54      20.45      17.45
H      10.60      17.27      16.97
H       9.16      18.12      17.54
H      10.72      18.94      17.57
H       7.53      19.53      11.47
H       8.77      18.40      10.90
C      11.10      17.88      12.10
H       9.09      20.14      10.87
C       7.96      20.19      16.34
C      10.29      18.48      13.20
C       8.77      19.59      15.24
C      10.68      18.26      14.54
C       8.45      19.91      13.90
C       9.85      18.73      15.57
C       9.15      19.24      12.87
