28

N       7.02       1.70       3.74
O      10.92       3.63      12.52
H      11.58       3.87      10.18
H      11.69       1.66       6.22
H      11.54       0.90       3.85
H       7.75       1.32       8.34
O      10.52       0.12       1.90
O       8.29       0.45       1.72
H       6.94       1.38       2.78
H       6.24       2.10       4.24
O       8.66       3.54      12.64
F       7.20       2.44       6.28
F      11.64       3.57       7.62
F       7.66       1.69      10.85
C       9.72       2.89      10.64
C      10.74       3.32       9.78
C      10.66       3.06       8.42
C       9.60       2.34       7.84
C       8.59       1.89       8.72
C       9.75       3.36      12.05
C       8.65       2.17      10.07
C       8.37       2.03       5.68
C       8.24       1.65       4.32
C      10.65       1.23       4.39
C      10.73       1.63       5.70
C       9.56       2.03       6.40
C       9.43       1.19       3.69
C       9.43       0.56       2.34
