31

C      15.65       1.35       8.34
C      15.75      -1.26       8.41
C      14.54      -0.73       9.21
C      15.80      -0.75       6.95
H      15.15       2.52       5.75
H      15.14       1.00       4.85
C      14.95       1.44       5.83
N      14.66      -1.28       6.08
O      16.76       3.45       8.11
O      14.50       3.47       8.25
H      16.65       1.15      10.25
H      17.75       1.41       8.90
H      17.90      -0.90       8.45
O      15.83      -3.37       9.57
H      14.09       1.31       9.85
H      14.75      -0.92      10.27
H      16.90       1.06       6.62
O      15.91      -3.36       7.31
H      13.52       0.93       8.23
H      13.63      -1.29       8.95
H      17.16      -1.13      10.04
H      16.67      -1.18       6.45
O      13.51      -1.29       6.54
O      14.96      -1.61       4.93
C      15.64       2.87       8.24
C      15.86       0.81       6.89
C      15.83      -2.78       8.44
C      16.84       0.87       9.20
C      17.02      -0.65       9.06
C      14.35       0.77       8.93
H      13.89       1.32       6.07
