17

O       5.56       1.01       8.14
H       4.53      -3.82       6.35
H       5.76       1.67       7.40
O       5.46      -1.08       3.60
H       5.51       0.30       5.56
O       4.69      -3.20       3.91
O       4.15      -4.78       8.61
O       4.74      -3.41      10.30
H       5.09      -1.08       9.64
C       5.02      -1.79       5.81
C       4.54      -3.66       9.06
C       4.74      -2.82       6.71
C       5.30      -0.50       6.28
C       5.05      -2.07       4.33
C       5.30      -0.22       7.65
C       4.77      -2.55       8.09
C       5.05      -1.26       8.56
