24

H      16.54      11.57       8.61
H      16.54       6.06       9.50
H      18.69      12.38       8.39
H      18.78       7.14       9.17
O      13.87       6.02       9.55
O      19.23      11.59       8.51
H      14.33      10.45       8.74
O      11.83       7.88       9.85
O      21.18       9.77       9.71
O      12.17       9.36       8.15
O      21.00       8.43       7.87
H      14.43       5.23       9.64
C      12.56       8.54       9.05
C      20.53       9.14       8.81
C      14.04       8.38       9.14
C      19.04       9.24       8.88
C      17.03      10.60       8.76
C      18.41      10.51       8.73
C      18.28       8.11       9.07
C      16.86       8.17       9.15
C      16.24       9.45       8.96
C      14.83       9.50       8.94
C      14.67       7.12       9.38
C      16.05       7.03       9.36
