18

C       2.49      -1.03      14.74
C       2.07       0.29      14.96
C       2.54       1.32      14.13
C       3.43       1.02      13.10
C       3.79      -0.30      12.83
C       3.32      -1.33      13.66
C       2.02      -2.13      15.65
C       2.06       2.75      14.30
C       4.61      -0.63      11.62
O       1.33      -1.79      16.66
H       1.37       0.51      15.76
H       3.82       1.83      12.48
H       3.59      -2.36      13.46
O       2.34      -3.34      15.34
O       0.95       2.85      14.95
O       2.73       3.67      13.79
O       5.34       0.29      11.13
O       4.50      -1.83      11.15
