16

C      18.54       9.77       3.91
C      18.41      13.37       4.22
C      18.48       9.64       5.30
C      18.48      13.50       2.84
C      18.44      12.01       4.61
C      18.51      11.13       3.52
C      18.47       8.43       6.13
S      18.39      11.18       6.12
S      18.56      11.96       2.02
O      18.56      14.52       0.74
O      18.56       7.31       5.53
O      18.40      15.83       2.61
O      18.39       8.62       7.39
C      18.48      14.72       2.00
Br      18.63       8.40       2.64
Br      18.31      14.75       5.49
