32

H      17.13       7.12      14.49
H      17.09      11.43      14.50
H      17.59       7.15       5.13
H      17.56      11.47       5.14
O      17.58      10.45       2.93
O      17.69       8.18       2.92
O      16.87      10.40      16.70
O      16.98       8.13      16.70
O      17.34      11.71      11.93
O      17.37       6.86      11.92
O      17.49      11.73       7.72
O      17.51       6.88       7.71
H      17.49      11.54      10.98
H      17.51       7.04      10.96
H      17.43      11.55       8.68
H      17.44       7.05       8.67
C      17.62       9.32       3.50
C      16.97       9.27      16.12
C      17.09       9.27      14.63
C      17.16       8.06      13.95
C      17.29       8.06      12.56
C      17.34       9.29      11.84
C      17.28      10.50      12.57
C      17.14      10.50      13.95
C      17.42       9.29      10.44
C      17.47       9.30       9.20
C      17.51       9.30       7.80
C      17.53       8.08       7.07
C      17.57       8.09       5.68
C      17.58       9.31       5.00
C      17.55      10.53       5.68
C      17.52      10.53       7.07
