26

H      12.50       6.72       6.18
H      13.18       7.10       8.54
H       9.12       8.15       9.52
H       8.47       7.82       7.15
O      12.88       9.77      15.13
O      13.22       7.55      15.35
O      10.98       6.75       4.27
O       8.83       7.24       4.78
H      10.98       9.92      13.27
H      10.23       9.50      10.95
H      13.08       6.28      10.63
H      13.79       6.68      12.98
C      12.88       8.58      14.67
C      10.44       7.24       6.52
C      11.77       7.03       6.92
C      12.14       7.23       8.25
C      11.20       7.64       9.21
C       9.88       7.85       8.79
C       9.50       7.66       7.47
C      12.43       8.33      13.27
C      11.43       9.11      12.69
C      11.01       8.87      11.39
C      11.61       7.86      10.61
C      12.62       7.08      11.20
C      13.02       7.30      12.52
C      10.06       7.06       5.08
