36

H       0.80      19.15       2.27
H       0.70      17.08       3.66
H       4.99      17.13       4.00
H       5.07      19.18       2.59
H       4.64      14.90       3.96
H       4.54      12.84       5.29
H       0.82      14.13       7.03
H       0.92      16.20       5.71
H       0.47      11.90       7.01
H       0.39       9.87       8.45
H       4.66       9.90       8.75
H       4.76      11.95       7.34
C       2.48       8.59       9.60
C       1.71      18.70       2.66
C       1.66      17.55       3.44
C       2.84      16.95       3.93
C       4.07      17.56       3.61
C       4.12      18.71       2.83
C       2.94      19.28       2.34
C       3.81      14.75       4.65
C       3.75      13.58       5.40
C       2.67      13.32       6.27
C       1.65      14.28       6.34
C       1.70      15.45       5.59
C       2.78      15.71       4.73
C       1.39      11.48       7.40
C       1.34      10.34       8.20
C       2.52       9.78       8.70
C       3.75      10.35       8.36
C       3.80      11.49       7.56
C       2.62      12.09       7.08
C       2.98      20.48       1.46
O       3.61       8.14      10.00
O       1.34       8.12       9.91
O       4.12      21.01       1.23
O       1.87      20.88       0.99
