15

H      15.01       6.57       3.43
C      16.79       7.64       2.91
H      14.72      10.86       5.45
C      15.47      10.40       4.81
C      15.98       6.56       2.92
N      16.55      11.02       4.30
O      15.37       4.43       2.18
H      17.73       7.58       2.36
C      17.20      10.09       3.52
N      15.42       9.12       4.38
H      14.75       8.40       4.76
H      18.12      10.34       3.00
C      16.32       5.30       2.23
O      17.47       5.10       1.73
C      16.51       8.89       3.56
