20

N       4.86       3.57       8.38
N       6.21       5.28       8.37
N       5.16       5.65       7.58
C       4.37       4.59       7.61
H       3.43       4.53       7.07
O      10.27      10.10       9.30
C       6.01       4.03       8.85
H       6.68       3.50       9.52
O      11.60       8.39       9.90
C       7.29       6.16       8.64
H       5.96       7.84       8.84
C       7.00       7.51       8.87
H       7.86       9.42       9.38
C       8.05       8.37       9.15
H      10.66       6.18       9.08
C       9.37       7.90       9.22
H       8.80       4.60       8.53
C       9.63       6.54       9.01
C       8.59       5.65       8.71
C      10.48       8.86       9.49
