14

H       8.33       1.68       0.71
C       9.28       1.14       0.87
H       9.89      -1.68      -0.71
C       8.94      -1.14      -0.87
H       9.91       1.68       1.58
C       9.24       0.25      -1.41
C       8.98      -0.25       1.41
H       8.32      -1.68      -1.58
N      10.03       1.03      -0.42
H       8.29       0.77      -1.64
H       9.93      -0.77       1.64
N       8.19      -1.03       0.42
H       9.84       0.16      -2.33
H       8.39      -0.16       2.33
