24

H       4.94       8.06      12.84
H       1.79      11.66      11.67
H       2.53       8.67      14.24
H       4.20      11.04      10.27
C       3.08      13.29      16.48
C       3.65       6.43       8.03
C       2.91       9.19      13.35
C       3.82      10.53      11.15
C       4.24       8.86      12.59
C       2.50      10.86      11.92
C       3.63       7.32       9.16
C       3.10      12.40      15.35
C       2.17       9.34      11.99
C       4.56      10.38      12.51
C       3.48       8.97      11.19
C       3.25      10.74      13.31
C       3.59       8.08      10.10
C       3.15      11.64      14.40
O       1.94      13.62      16.94
O       4.79       6.10       7.56
O       4.22      13.66      16.92
O       2.51       6.06       7.58
F       5.79      10.92      12.79
F       0.94       8.80      11.72
