34

O      -2.94      -1.83      10.34
O       2.06       1.02      14.37
H      -1.88      -0.76      12.24
O       3.01       2.22      12.68
O       0.49      -0.82       9.95
O       0.90       1.62      11.02
O      -1.87      -1.18       8.44
H       1.90      -0.86       8.54
H       0.25      -0.76       7.87
H       1.50      -3.23       9.21
H      -0.12      -3.17       8.50
H       0.85      -2.66       6.24
H       1.53      -4.17       6.87
H       2.49      -2.67       6.92
H       0.06      -0.11      13.69
H       1.71       1.35       9.17
H       2.91       1.33      10.48
H       1.31       3.78       9.54
H       2.54       3.79      10.82
H       4.29       3.07       9.15
H       3.53       4.58       8.63
H       3.07       3.05       7.86
C       2.10       1.45      13.16
C      -0.91      -0.51      11.79
C      -0.75      -0.91      10.49
C       0.09       0.11      12.62
C       1.03       1.01      12.22
C      -1.94      -1.35       9.70
C       0.87      -1.25       8.62
C       0.90      -2.76       8.42
C       1.47      -3.08       7.04
C       2.01       1.83      10.11
C       2.25       3.31       9.87
C       3.34       3.52       8.82
