19

C      16.92      10.98       4.88
C      20.07      11.93       3.34
C      16.79      12.27       5.38
C      20.21      10.65       2.83
C      18.88      12.05       4.08
C      18.12      10.86       4.13
C      16.00       9.83       5.16
S      18.11      13.32       4.96
S      18.90       9.58       3.26
H      20.81      12.71       3.16
H      15.84       9.67       3.24
C      15.67      12.86       6.14
C      21.30      10.13       2.00
O      14.59      12.19       6.19
O      15.90      14.00       6.66
O      21.21       8.91       1.65
O      22.24      10.95       1.71
O      15.55       9.19       4.04
O      15.72       9.43       6.26
