38

H       6.21       2.03      11.38
H       7.21      -0.12      12.14
H       5.99      -3.40      15.42
H       1.16       1.88      14.50
H       2.06      -0.85      18.14
H       1.26      -2.25      17.46
H       2.66      -2.47      18.54
H       0.22       0.57      15.99
H       2.11       3.80      11.84
H       7.92      -2.57      14.53
H       7.05      -3.38      13.23
H       8.22      -2.09      12.85
C       4.27       3.82      10.97
C       3.09       2.45      12.72
C       4.24       2.69      11.92
C       5.34       1.82      12.00
C       5.32       0.70      12.84
C       4.21       0.52      13.72
C       3.11       1.41      13.68
C       6.37      -0.27      12.83
C       6.35      -1.38      13.63
C       5.26      -1.54      14.58
C       4.20      -0.58      14.64
C       3.14      -0.73      15.60
C       2.04       0.21      15.50
C       2.03       1.22      14.58
C       5.22      -2.63      15.45
C       4.20      -2.76      16.41
C       3.18      -1.79      16.55
C       4.23      -4.00      17.24
C       2.24      -1.85      17.74
C       7.44      -2.41      13.55
O       5.38       4.19      10.48
O       3.13       4.36      10.68
O       5.37      -4.46      17.57
O       3.12      -4.53      17.53
O       0.95       0.00      16.31
O       1.97       3.19      12.63
