20

H       7.09       0.94       8.19
H       7.05      -1.55       8.31
O       3.82      -3.75       8.77
O       6.08      -3.75       9.05
H       2.15       1.13      10.22
O       3.90       3.26       8.81
O       6.15       3.26       8.52
H       1.74       1.06       8.48
H       2.10      -1.38      10.32
H       1.69      -1.46       8.59
C       4.95      -3.17       8.88
C       3.81      -0.92       8.98
C       4.95      -1.69       8.79
C       6.14      -0.97       8.49
C       6.16       0.42       8.42
C       5.00       1.19       8.65
C       3.84       0.48       8.93
C       2.37       0.61       9.27
C       2.33      -0.97       9.33
C       5.02       2.68       8.65
