28

C       7.82      10.74       2.62
H       3.71      13.94       7.81
C       3.27      14.63       7.10
H       5.55      11.56       0.41
C       6.36      11.20       1.03
H       2.47      16.25       4.37
H       5.38      15.53       3.36
H       4.94      10.84       4.73
C       3.52      14.79       5.74
C       6.68      11.51       2.35
H       5.91      12.96       6.38
C       6.43      13.57       4.16
H       4.40      13.43       1.72
C       5.56      13.05       5.35
H       8.47      10.70       3.50
C       4.74      13.33       2.76
C       5.27      14.49       3.67
N       2.30      15.51       7.48
C       5.03      11.89       4.44
N       7.25      10.29       0.53
C       4.38      13.99       4.88
N       1.91      16.26       6.40
C       5.91      12.39       3.23
N       8.16      10.02       1.54
Cl       8.11      14.04       4.28
C       3.87      12.80       3.94
Cl       2.20      12.32       3.80
C       2.62      15.82       5.36
