18

O      30.07      14.94      13.61
C      27.87      15.08      12.76
O      28.67      13.16      13.88
O      23.79      16.18       9.62
O      25.15      17.93       9.09
H      24.93      14.66      11.15
O      28.57      17.27      13.51
C      26.05      16.24      10.41
O      27.20      16.92      10.26
C      27.73      16.53      13.02
C      24.89      16.81       9.65
O      26.95      13.11      11.83
C      26.94      14.46      11.96
H      26.32      12.86      11.13
C      25.91      15.13      11.18
H      26.72      16.92      12.77
H      26.98      17.68       9.68
C      28.95      14.33      13.46
