13

H      -2.25       8.58      12.68
O      -2.14       5.51      13.07
C      -2.93       7.73      12.54
H      -4.59       8.59      15.37
O      -1.78       7.47      15.46
O      -1.31       6.51      11.26
C      -2.48       8.53      15.58
C      -2.08       6.50      12.26
H      -3.51       7.97      11.63
O      -2.20       9.46      16.39
C      -3.73       8.65      14.69
N      -3.81       7.56      13.71
H      -3.73       9.64      14.21
