16

C      15.32       3.47      18.53
C      19.20       5.83      22.17
O      14.30       4.13      18.18
O      15.61       2.28      18.17
H      19.19       3.32      21.10
H      17.00       7.02      21.17
H      17.49       2.37      19.53
C      16.28       4.14      19.47
C      18.20       5.23      21.24
C      16.16       5.47      19.94
O      19.00       7.04      22.52
C      18.34       3.91      20.78
C      17.40       3.39      19.91
O      20.16       5.08      22.55
C      17.11       5.99      20.82
Cl      14.88       6.54      19.50
