18

H      11.34       3.62      29.26
H      11.95      -1.03      27.63
O      13.34       3.68      30.63
O      14.56       1.75      30.61
C       9.75       0.06      26.62
O       8.30       2.56      28.32
O       9.54       3.79      26.97
O       9.90      -1.18      26.41
C      10.70       0.70      27.59
C      12.58       1.86      29.33
C      13.57       2.48      30.26
N       9.36       2.84      27.74
C      10.54       2.01      28.06
C      12.75       0.54      28.88
C      11.47       2.60      28.91
C      11.82      -0.02      28.01
O       8.88       0.82      26.08
H      13.62      -0.02      29.21
