16

C       4.28       9.19       3.11
O       5.10       4.90      -3.73
O       3.16       9.46       3.65
F       1.66       6.33      -1.51
H       6.32       8.24       1.31
C       2.96       6.54      -1.26
C       5.28       8.05       1.05
C       4.00       6.07      -2.05
C       4.22       8.48       1.83
C       4.81       7.35      -0.09
C       3.41       7.27      -0.14
O       5.44       9.48       3.58
O       2.82       4.83      -3.65
S       5.56       6.54      -1.41
S       2.66       8.05       1.20
C       3.96       5.21      -3.23
