9

C       3.71       2.01      12.96
H       3.22       2.39      12.06
H       5.18       1.34      16.80
N       3.50       2.48      14.21
N       4.40       1.81      16.33
C       4.31       1.71      15.00
N       4.98       0.80      14.25
N       4.58       1.02      12.93
H       3.94       2.61      16.79
