32

H       7.19       5.92       7.96
C       8.06       8.89       6.25
C       7.71      10.15       5.79
C       8.97       6.57       5.85
C       7.05       5.31       4.76
C       5.86       4.79       5.22
C       6.93       5.62       6.95
N       7.21      14.39       6.49
N       7.70      12.93       4.92
H       9.25      14.77       7.13
N       7.71       5.82       5.86
H       9.85      12.93       5.14
N       5.81       4.99       6.59
H       5.65      13.49       5.33
H       8.12      12.14       3.03
H       6.49      11.83       3.64
H       8.97       9.96       2.63
C       8.59      14.24       6.46
H       9.59       7.72       3.43
C       8.90      13.33       5.48
H       7.80       8.58       7.26
C       6.70      13.60       5.56
H       7.18      10.84       6.45
C       7.55      11.87       3.93
H       9.67       6.05       5.19
C       8.00      10.54       4.47
H       9.37       6.54       6.87
C       8.70       9.66       3.64
H       7.46       5.38       3.76
C       9.05       8.39       4.10
H       5.07       4.29       4.67
C       8.72       7.99       5.39
