13

H      12.70       6.41       5.23
C      14.04      10.18       4.79
H      12.98       6.89       6.91
H      15.83      11.33       4.99
C      12.87       8.52       5.54
N      12.81      10.64       5.02
N      12.07       9.58       5.50
H      14.74      11.84       3.68
H      11.37       7.15       6.17
C      12.46       7.17       5.99
N      14.12       8.85       5.12
H      15.73      10.36       3.52
C      15.15      10.98       4.21
