27

N      28.07       8.23      14.95
N      27.36       7.43      11.04
H      20.60       7.11      10.70
H      22.46       7.94      15.09
O      24.66       8.69       8.52
O      25.50       9.85      10.29
H      22.36       8.01       9.15
O      20.83       6.76      14.55
O      19.53       6.66      12.69
H      23.86       8.38      16.94
H      25.57       7.90      16.77
H      25.10       9.58      16.52
C      25.43       8.12      12.62
C      24.10       8.09      12.09
C      23.03       7.85      13.01
C      21.75       7.45      12.46
C      20.62       6.93      13.30
C      24.75       8.96       9.76
C      21.56       7.45      11.09
C      23.29       8.02      14.40
C      24.55       8.27      14.90
C      25.66       8.22      13.99
C      22.56       7.90      10.21
C      24.78       8.54      16.36
C      26.99       8.24      14.50
C      26.52       7.81      11.75
C      23.82       8.24      10.69
