34

H      10.59       6.45      11.28
H      14.73       5.26      11.34
H      14.72       6.71      18.02
H      10.58       5.50      18.06
H      10.51       7.51      14.69
H       9.44       6.69      13.56
H      14.79       4.45      14.81
H      15.87       5.17      13.63
H      14.81       7.51      14.56
H      15.88       6.77      15.74
H      10.53       4.44      14.65
H       9.44       5.25      15.77
C      12.65       6.19      19.66
C      12.67       5.77       9.69
C      10.34       6.56      14.15
C      14.97       5.36      14.20
C      14.97       6.60      15.16
C      10.35       5.39      15.19
C      11.49       6.22      11.86
C      11.50       6.28      13.25
C      13.83       5.53      11.89
C      13.82       5.58      13.28
C      13.82       6.43      17.47
C      13.82       6.38      16.08
C      11.48       5.74      17.49
C      11.49       5.68      16.10
C      12.66       5.85      11.18
C      12.66       5.96      13.95
C      12.65       6.11      18.18
C      12.66       6.01      15.41
O      11.50       6.20      20.23
O      11.52       5.74       9.12
O      13.81       5.73       9.12
O      13.79       6.26      20.24
