28

H       0.63       7.81      13.00
H      -2.22      11.59      11.64
H      -1.92       8.47      14.11
H       0.33      10.92      10.53
H       1.80      11.80      13.17
H      -3.38       7.60      11.43
C      -0.33       6.46       7.98
C      -1.28      12.93      16.66
C      -1.40       9.00      13.31
C      -0.19      10.40      11.33
C      -0.01       8.64      12.70
C      -1.58      10.75      11.94
C      -0.35       7.31       9.14
C      -1.24      12.08      15.50
C      -2.01       9.26      11.88
C       0.42      10.13      12.75
C      -0.58       8.87      11.25
C      -1.01      10.53      13.39
C      -0.42       8.03      10.12
C      -1.17      11.36      14.52
C       1.67      10.69      13.30
C      -3.26       8.71      11.34
O      -1.47       6.16       7.49
O      -0.15      13.20      17.20
O       0.81       6.11       7.54
O      -2.42      13.32      17.05
O       2.50      10.03      13.91
O      -4.11       9.38      10.77
