90

H       3.85       1.78       0.76
H       5.04       5.05       7.73
H       5.36       5.21       5.25
H       2.95       8.68      -0.92
H       1.15       6.64      -4.88
H       4.96       5.54      -7.85
H       2.47       0.50      -1.05
H       4.19       0.23      -0.65
H       3.17       0.08      -3.52
H       4.70      -0.55      -2.90
H       3.37      -2.25      -1.49
H       3.16      -2.45      -3.24
H       1.89      -1.67      -2.28
H       1.05       9.23      -7.27
H       0.48       8.44      -5.78
H      -1.16       8.94      -8.32
H      -1.71       7.95      -6.95
H      -1.53       9.95      -5.43
H      -2.62      10.27      -6.80
H      -0.98      10.94      -6.80
H       7.41       5.53      -5.09
H       6.68       5.96      -6.65
H       6.77       3.09      -5.56
H       6.40       3.57      -7.22
H       8.79       4.48      -7.47
H       8.77       2.74      -7.09
H       9.14       3.93      -5.82
H       0.67       5.65       3.78
H      -0.21       5.12       5.24
H      -0.51       3.78       2.50
H      -1.46       3.44       3.95
H      -2.34       5.86       3.89
H      -2.77       4.94       2.43
H      -1.44       6.11       2.39
C       3.71       2.76       0.30
C       3.65       2.90      -1.10
C       3.49       4.19      -1.66
C       3.40       5.31      -0.79
C       3.24       6.62      -1.31
C       3.07       7.70      -0.46
C       3.04       7.54       0.93
C       3.31       4.38      -3.12
C       3.24       6.88      -2.77
C       1.99       6.41      -5.54
C       2.87       6.25      -9.24
C       1.87       6.63      -6.92
C       2.95       6.27      -7.74
C       4.14       5.80      -7.18
C       4.28       5.65      -5.80
C       3.16       5.93      -4.99
C       2.15       4.06       5.35
C       2.00       3.91       6.74
C       3.03       4.31       7.61
C       4.24       4.75       7.05
C       4.42       4.85       5.68
C       3.36       4.53       4.83
C       2.90       4.42       9.10
C       3.25       6.05       2.96
C       3.69       3.60       2.61
C       3.61       3.85       1.15
C       3.43       5.16       0.63
C       3.25       6.28       1.50
C       3.49       0.51      -1.46
C       3.63      -0.41      -2.65
C       2.98      -1.77      -2.40
C       0.36       8.47      -6.87
C      -1.07       8.80      -7.23
C      -1.57      10.06      -6.53
C       6.67       5.21      -5.84
C       7.02       3.82      -6.35
C       8.51       3.74      -6.70
C       0.17       4.79       4.26
C      -0.95       4.24       3.40
C      -1.93       5.34       3.01
I       0.22       2.96       7.36
I       2.60       9.31       1.99
N       3.47       4.73       3.41
N       3.25       5.74      -3.57
O       3.93       2.51       3.10
O       3.19       3.48      -3.94
O       3.21       8.01      -3.24
O       3.87       6.73      -9.87
O       1.87       5.66      -9.76
O       3.97       4.50       9.79
O       1.72       4.48       9.58
O       3.06       6.94       3.79
O       3.76       1.85      -1.93
O       0.71       7.18      -7.44
O       5.41       5.27      -5.14
O       1.15       3.73       4.47
