31

S       3.71       6.75      12.08
H       2.28       5.83      10.64
H       4.24       8.40       9.10
H      -0.51       9.55      10.01
H       0.44       7.47      10.91
H       2.41       4.47      13.26
H       7.06       3.16      12.12
H       6.23       5.45      11.54
N       2.99       6.56      10.55
O       4.80      10.37       7.80
O       3.19      11.92       7.72
O       0.75      11.35       8.66
O       1.71       2.36      14.21
O       3.28       0.78      14.26
O       5.76       1.33      13.33
O       2.73       7.06      13.09
O       4.85       7.61      11.89
C       2.41       7.78      10.04
C       3.20       8.65       9.31
C       2.69       9.87       8.83
C       1.32      10.21       9.07
C       0.53       9.30       9.81
C       1.07       8.12      10.30
C       3.61      10.74       8.08
C       4.27       5.09      12.36
C       3.42       4.18      12.98
C       3.86       2.88      13.29
C       5.21       2.51      13.00
C       6.04       3.46      12.34
C       5.58       4.72      12.02
C       2.90       1.98      13.95
