16

Br      14.66       6.46      18.93
Br      19.75       2.87      20.95
Br      16.38       7.54      21.46
Br      17.27       1.35      19.50
C      16.07       3.97      19.33
O      13.85       3.68      18.53
C      15.95       5.32      19.73
O      15.51       2.55      17.50
C      16.82       5.86      20.69
C      17.15       3.22      19.82
C      18.14       3.83      20.62
C      17.96       5.14      21.11
C      15.06       3.35      18.38
O      19.49       4.99      22.93
O      19.21       7.00      21.92
C      18.96       5.76      22.06
