28

H       8.12       9.16      16.61
H      11.74       5.64      11.05
N       8.98       7.38      17.02
N       8.45       8.30      16.17
N      10.50       4.53      12.22
N      11.21       5.64      11.92
H      10.33       5.42      17.96
H       9.97       4.39      16.55
H      11.43       5.39      16.55
H       7.64       9.73      14.16
H       9.15       9.44      13.27
C      10.38       5.36      16.86
H       7.76       8.38      13.02
H       8.75       2.98      13.29
C       9.63       6.50      16.25
H       9.18       3.54      14.93
C       9.52       6.87      14.88
C       8.77       8.05      14.88
H       7.86       4.33      14.06
C       8.31       8.95      13.78
H      11.37       8.62      13.53
C       8.85       3.86      13.93
H      12.77       7.88      12.73
C       9.80       4.83      13.32
H      11.42       8.51      11.75
C      10.08       6.17      13.73
C      10.99       6.66      12.79
C      11.67       7.98      12.69
