28

H       2.56       6.56       0.82
H       3.32       8.64       1.01
C       3.01      11.38       0.92
C       2.18       3.85       0.99
C       2.81      11.17      -1.28
C       2.47       3.77      -1.21
H       3.19      11.27       1.98
H       2.13       4.11       2.04
H       4.13       6.21      -1.81
C       2.71       4.02      -2.66
C       2.76      10.66      -2.67
H       4.15       8.59      -1.94
N       2.51      12.53       0.42
N       1.81       2.62       0.57
H       3.76      10.64      -3.13
H       2.38       9.63      -2.67
H       2.11      11.28      -3.30
H       2.36       5.03      -2.94
H       3.77       3.96      -2.92
N       1.98       2.58      -0.80
H       2.17       3.28      -3.28
N       2.39      12.40      -0.93
C       3.22      10.46      -0.12
C       2.62       4.63      -0.10
C       3.69       6.74      -0.96
C       3.83       8.18      -0.98
C       2.98       6.02      -0.04
C       3.51       9.05       0.01
