13

H       9.51       8.85       5.86
H       9.75      10.32       4.86
O      12.53       9.05       5.73
O      11.33      10.59       6.89
C      10.07       7.25       2.20
H       9.82       9.38       2.34
H       8.66       8.43       3.34
C       9.70       8.50       3.00
C      11.48       9.70       6.00
O      11.15       6.66       2.46
O       9.22       6.93       1.31
O      10.60       8.57       4.10
C      10.22       9.39       5.20
