44

H      11.58       0.31       5.26
H      11.64       0.44       2.76
H       9.78      -3.45       2.65
H       9.80      -3.43       5.17
H       7.25      -1.49      -1.10
H       7.19      -1.63      -3.61
H      13.94      -1.80      -3.74
H      13.99      -1.67      -1.24
N      10.68      -1.56       5.29
H       9.91      -3.98      -7.44
N      10.68      -1.48       1.09
H       9.79      -3.98      -9.96
N      10.52      -1.83      -5.94
H      10.89       0.00     -10.16
H      11.06       0.18      -7.66
N      10.31      -1.99     -10.13
O      12.98      -1.49       1.06
O       8.38      -1.39       1.16
O      12.81      -1.86      -6.02
O       8.22      -1.80      -5.92
C      11.19      -0.50       4.64
C      11.22      -0.43       3.25
C      10.70      -1.49       2.53
C      10.18      -2.60       3.20
C      10.19      -2.60       4.58
C      11.93      -1.51       0.42
C      11.86      -1.61      -1.05
C      10.61      -1.62      -1.72
C       9.39      -1.54      -1.00
C       9.40      -1.46       0.47
C       8.17      -1.55      -1.67
C       8.14      -1.63      -3.07
C       9.32      -1.71      -3.80
C      10.58      -1.70      -3.14
C      11.80      -1.77      -3.85
C      13.01      -1.76      -3.18
C      13.04      -1.69      -1.78
C      11.79      -1.82      -5.33
C       9.27      -1.78      -5.27
C      10.48      -1.89      -7.37
C      10.13      -3.08      -8.01
C      10.05      -3.08      -9.40
C      10.67      -0.85      -9.52
C      10.77      -0.76      -8.13
