18

H       1.70       4.22      11.15
H       0.69       0.03      11.40
C      -0.67       0.12      13.75
C       2.05       1.84       9.86
C       0.60       4.99      13.53
C      -0.03       1.26      13.01
C      -0.05       2.55      13.56
C       0.57       3.62      12.90
O      -1.34       0.46      14.80
C       1.22       3.39      11.67
O      -0.52      -1.06      13.32
C       1.28       2.10      11.14
O       2.13       0.61       9.51
C       0.65       1.04      11.81
O       2.57       2.82       9.26
O       0.44       5.02      14.81
O       0.80       5.99      12.79
H      -0.53       2.72      14.51
