13

O       0.00       4.95       4.11
H       1.12       3.35       3.37
H      -0.29       3.84       2.36
C      -1.41       5.15       6.00
C      -0.53       4.21       5.20
O       1.38       6.38       2.47
O       2.11       4.56       1.31
C       1.42       5.15       2.21
C       0.53       4.21       3.01
H      -1.12       3.35       4.84
O      -2.11       4.56       6.90
O      -1.38       6.38       5.74
H       0.29       3.84       5.85
