18

O       4.23       7.83       0.08
O       4.13       5.99       1.33
O       6.03      12.19       4.28
H       5.95       9.97       5.55
H       4.38       9.97       1.54
H       5.16       6.24       3.54
C       5.59       8.02       4.68
C       5.61       9.42       4.67
C       6.00       7.24       5.88
C       4.74       8.02       2.41
C       4.72       9.42       2.41
C       4.33       7.24       1.20
C       5.16       7.33       3.54
C       5.16      10.12       3.54
C       5.16      11.61       3.54
O       6.10       7.83       7.01
O       6.20       5.99       5.75
O       4.30      12.19       2.81
