12

C       8.84       5.59      15.54
O       8.59       4.00      25.22
O       7.48       5.98      25.28
C       8.19       5.10      24.70
O       9.57       4.70      14.99
O       8.37       6.63      14.96
C       8.51       5.32      23.32
C       8.58       5.40      22.10
C       8.63       5.46      20.76
C       8.61       5.47      18.18
C       8.61       5.47      16.95
C       8.62       5.47      19.52
