54

H       1.59      15.93       7.15
H       1.86      18.11       8.36
H       3.87      16.06      11.56
H       4.27      21.13       8.27
H       2.49      25.30      10.30
H       2.50      23.16      11.61
H       4.33      21.52      14.33
H       2.35      17.73      16.86
H       2.39      17.68      14.35
H       2.13      12.82      10.84
H       2.82      23.37       5.81
H       2.79      22.53      17.50
C       3.36      19.59      18.48
C       2.60      13.54       7.85
C       3.47      25.72       7.86
C       3.31      20.74      10.75
C       3.07      18.48      10.76
C       3.31      19.61      12.72
C       2.09      15.97       8.11
C       2.24      17.18       8.78
C       2.89      17.21      10.03
C       3.38      16.03      10.59
C       3.26      14.82       9.91
C       2.63      14.79       8.65
C       3.90      22.05       8.72
C       3.95      23.24       8.00
C       3.43      24.42       8.58
C       2.89      24.38       9.87
C       2.89      23.20      10.60
C       3.38      22.02      10.01
C       3.91      20.68      14.89
C       3.91      20.70      16.28
C       3.34      19.63      16.99
C       2.79      18.55      16.30
C       2.81      18.52      14.91
C       3.36      19.60      14.20
C       3.86      13.60      10.56
C       4.56      23.23       6.63
C       4.53      21.89      16.97
N       3.14      19.62      10.03
N       3.15      18.42      12.10
N       3.40      20.79      12.09
O       2.50      26.53       8.07
O       2.38      19.01      19.07
O       1.62      13.35       7.06
O       4.48      25.92       7.10
O       3.60      12.76       8.02
O       4.36      20.14      19.05
O       3.12      12.57      10.89
O       5.07      13.62      10.83
O       3.81      23.45       5.56
O       5.76      22.95       6.52
O       3.78      22.71      17.69
O       5.73      22.11      16.80
