27

C       0.46       0.69       7.37
H      -2.37       2.57       3.68
C       0.17      -0.54       7.96
H       1.68       3.49       2.58
C       0.31       1.89       8.08
H      -1.55       1.19       5.61
C      -0.29      -0.57       9.28
C      -0.08       1.84       9.40
H       2.51       2.03       4.45
H       0.30      -1.45       7.39
C      -0.40       0.61      10.01
H       0.57       2.84       7.60
C      -0.76       0.62      11.46
H      -0.52      -1.52       9.75
O      -2.12       3.81       1.50
O      -0.15       4.81       1.36
H      -0.12       2.74      10.01
C      -0.91       3.94       1.90
O       1.01       0.69       6.10
C      -0.40       3.12       3.03
O      -1.50      -0.28      11.97
C      -1.31       2.48       3.88
O      -0.32       1.62      12.14
C       0.97       2.98       3.25
C      -0.85       1.72       4.95
C       1.44       2.18       4.29
C       0.52       1.56       5.14
