30

H       5.87       9.12       6.26
H       1.93       9.12       7.60
H       5.87      18.59       7.60
H       1.93      18.59       6.26
H       1.63      12.73       7.90
H       0.83      11.22       8.02
H       6.17      12.73       5.96
H       6.98      11.22       5.84
H       1.63      14.99       5.96
H       0.83      16.49       5.84
H       6.17      14.99       7.90
H       6.98      16.50       8.02
C       5.01       9.71       6.56
C       5.07      11.11       6.57
C       3.90      11.84       6.93
C       2.74      11.11       7.29
C       2.80       9.71       7.30
C       3.90      13.24       6.93
C       3.90      14.47       6.93
C       3.90      15.88       6.93
C       5.07      16.60       7.29
C       5.01      18.00       7.30
C       2.80      18.00       6.56
C       2.74      16.60       6.56
N       3.90       9.06       6.93
N       3.90      18.66       6.93
N       1.56      11.77       7.58
N       6.25      11.77       6.28
N       1.56      15.95       6.28
N       6.25      15.95       7.58
