14

C       4.03       4.24       8.44
O       3.24       3.92       5.69
O       2.36       5.98       5.78
C       3.39       5.19       7.72
H       5.56       2.62       9.91
O       5.17       4.49      12.64
H       4.14       5.33      10.33
C       2.99       5.02       6.31
H       4.28       3.29       7.96
H       3.16       6.16       8.16
C       5.71       3.64      11.83
O       6.66       2.87      12.17
C       5.22       3.51      10.45
C       4.45       4.42       9.81
