35

O      14.64      11.92      11.48
O      16.05      11.90      13.20
O      14.63      19.16      20.25
O      16.05      19.18      18.53
F       9.81      13.64      15.94
F      11.12      13.95      17.66
F       9.39      15.25      17.36
F       9.81      17.43      15.79
F      11.12      17.13      14.07
F       9.39      15.83      14.37
C      14.93      12.20      12.72
C      13.94      12.98      13.52
C      14.20      13.26      14.87
H      15.11      12.85      15.33
H      13.55      14.27      16.65
C      13.33      14.05      15.60
C      12.78      13.49      12.94
C      12.19      14.62      15.00
C      11.92      14.30      13.67
H      12.56      13.23      11.90
C      10.40      14.59      16.71
H      11.04      14.71      13.17
H      15.11      18.23      16.41
H      13.55      16.81      15.09
H      11.04      16.37      18.56
H      12.56      17.84      19.83
C      14.92      18.87      19.01
C      13.94      18.10      18.21
C      14.20      17.82      16.86
C      13.33      17.02      16.13
C      12.19      16.46      16.73
C      11.92      16.77      18.07
C      12.78      17.59      18.80
C      10.40      16.48      15.02
C      11.31      15.54      15.87
