52

C      -3.53      15.84       2.49
C      -2.29      16.46       2.83
C      -2.30      17.65       3.57
C      -3.53      18.30       3.84
C      -4.76      17.73       3.43
C      -4.77      16.46       2.83
C      -3.53      19.55       4.52
C      -3.53      20.62       5.11
C      -3.53      21.87       5.79
C      -2.30      22.42       6.24
C      -2.29      23.69       6.85
C      -3.53      24.32       7.13
C      -4.77      23.74       6.76
C      -4.76      22.54       6.02
H      -0.16      16.67       2.58
H      -0.93      15.68       1.33
H      -0.67      15.00       2.93
H      -6.91      16.38       3.12
H      -6.14      14.79       2.97
H      -6.38      15.76       1.53
H      -6.70      18.45       2.79
H      -5.81      19.55       3.86
H      -6.60      18.12       4.53
H      -0.35      17.50       4.51
H      -1.25      18.98       4.88
H      -0.47      18.80       3.31
H      -0.55      21.86       5.09
H      -1.24      20.57       6.08
H      -0.30      21.86       6.84
H      -6.51      21.26       6.16
H      -5.82      21.41       4.54
H      -6.76      22.75       5.23
H      -6.45      25.07       6.42
H      -6.05      24.84       8.11
H      -6.86      23.54       7.23
H      -0.61      24.12       8.16
H      -1.00      25.42       7.05
H      -0.19      23.97       6.43
C      -0.94      15.93       2.40
C      -6.12      15.82       2.60
C      -6.04      18.50       3.66
C      -1.03      18.26       4.09
C      -1.03      21.64       6.05
C      -6.03      21.96       5.46
C      -6.10      24.33       7.15
C      -0.96      24.33       7.13
O      -2.60      25.84       8.71
O      -4.46      26.47       7.55
C      -3.53      25.63       7.85
C      -3.53      14.52       1.77
O      -4.65      14.03       1.39
O      -2.41      13.93       1.57
