16

O       0.55       4.21       7.92
H       3.61       5.10      10.49
C       1.65       4.44       8.52
C       1.78       3.76      15.99
C       0.73       3.47      13.65
C       2.68       4.66      10.84
C       1.72       3.88      14.53
C       1.67       4.28       9.98
C       2.32       4.39      12.18
C       1.06       3.77      12.31
S       3.07       4.61      13.72
S       0.29       3.57      10.78
Cl      -0.70       2.62      14.05
O       2.74       4.81       7.98
O       2.93       3.93      16.54
O       0.69       3.49      16.60
