28

O       2.05      18.10      11.94
C      -2.87      21.54      10.91
C      -0.05      19.14      11.55
C      -2.87      19.09      11.27
C      -0.04      21.59      11.18
C      -2.17      20.33      11.16
H      -2.69      23.68      10.57
C      -0.74      20.35      11.29
H      -2.69      16.95      11.61
C      -2.14      22.77      10.78
C      -0.77      17.91      11.68
C      -2.14      17.89      11.52
C      -0.78      22.79      10.93
H      -0.22      17.00      11.89
H      -0.23      23.73      10.83
N      -4.95      20.30      10.96
N       2.04      20.38      11.49
H      -5.89      18.14      10.76
H       2.98      22.53      11.69
H      -5.89      22.37      10.21
H       2.98      18.31      12.25
O      -4.96      22.58      10.51
O      -4.97      17.99      11.11
C       1.36      21.54      11.34
C      -4.27      19.14      11.11
O       2.06      22.69      11.34
C      -4.27      21.46      10.79
C       1.36      19.22      11.66
