20

S       2.54       3.59       3.71
S       6.10       1.57       4.56
H       4.66       2.66       1.36
S       4.19       2.24       7.50
H       5.42       3.82       8.19
C       1.52       4.00       6.21
O       0.51       4.38       5.53
O       1.68       4.09       7.46
C       7.10       1.29       1.99
O       7.00       1.46       0.74
O       8.07       0.72       2.62
O       4.47       3.63       8.27
O       3.08       1.63       8.15
O       5.47       1.56       7.39
C       3.77       2.73       5.85
C       4.87       2.45       2.41
C       2.62       3.40       5.43
C       6.00       1.79       2.83
C       4.05       2.79       3.51
C       4.59       2.37       4.75
