65

C      -0.15      14.05      15.61
P       1.09      10.28      14.65
C      -1.54      13.99      15.51
P      -1.73       7.51      18.78
C      -2.16      12.80      15.11
H       6.27      10.20      19.85
C      -1.40      11.68      14.81
H       4.15      10.54      18.56
C       0.12       9.16      13.59
H       2.92       6.60      19.87
C      -0.47       9.66      12.42
H       5.05       6.46      21.14
C      -1.07       8.79      11.51
H       3.03       9.88      16.72
C      -1.08       7.42      11.74
H      -1.15       8.98      16.19
C      -0.49       6.90      12.90
H       0.90       7.59      19.71
C       0.12       7.77      13.81
H       1.72      12.97      15.36
C      -1.69       5.77      18.19
H       0.34      14.96      15.95
C      -1.34       5.44      16.87
H      -2.13      14.87      15.75
C      -1.40       4.11      16.44
H      -3.25      12.75      15.04
C      -1.83       3.11      17.31
H      -1.89      10.75      14.51
C      -2.16       3.43      18.63
H      -0.46      10.73      12.22
C      -2.08       4.76      19.07
H      -1.53       9.20      10.61
C      -3.10       8.26      17.82
H      -1.55       6.75      11.02
C      -3.81       7.59      16.80
H      -0.49       5.83      13.08
C      -4.84       8.25      16.11
H       0.59       7.35      14.71
C      -5.17       9.57      16.43
H      -1.01       6.22      16.18
C      -4.47      10.23      17.44
H      -1.12       3.86      15.41
C      -3.46       9.58      18.14
H      -1.88       2.07      16.97
N       5.74       8.33      20.54
H      -2.46       2.65      19.33
H      -2.28       5.00      20.12
H      -3.56       6.57      16.54
H      -5.38       7.71      15.33
H      -5.97      10.07      15.89
H      -4.72      11.26      17.71
H      -2.92      10.10      18.94
C       5.48       9.44      19.84
C       4.31       9.61      19.11
C       3.36       8.58      19.09
C       3.63       7.43      19.84
C       4.82       7.35      20.55
C       2.12       8.71      18.30
C       2.11       9.41      17.09
C       0.96       9.47      16.30
C      -0.23       8.90      16.77
C      -0.25       8.23      18.00
C       0.93       8.11      18.75
C       0.00      11.73      14.90
C       0.63      12.93      15.30
