12

O       8.41       6.74      14.87
C       8.21       5.68      24.49
O       8.62       4.64      25.10
C       8.65       5.83      23.13
C       8.78       5.78      21.91
C       8.78       5.58      19.35
C       8.83       5.69      20.58
C       8.66       5.48      16.79
C       8.71       5.51      18.01
O       7.38       6.55      24.92
O       9.61       4.80      14.79
C       8.88       5.67      15.38
