32

O       0.61      13.20      24.00
O       2.87      13.06      23.87
H      -0.39      13.96      21.86
H      -0.46      15.50      19.89
H       3.77      14.91      22.45
H      -0.35      21.51      15.99
H       3.73      20.58      15.04
H       3.68      18.69      16.68
H       3.78      17.47      19.83
H       4.69      16.76      21.12
H      -0.57      18.99      18.63
H      -1.39      20.29      17.85
C       1.68      22.23      14.40
C       1.73      13.47      23.46
C       1.69      14.37      22.28
C       0.49      14.53      21.56
C       0.45      15.39      20.47
C       1.59      16.15      20.11
C       2.81      15.97      20.82
C       2.84      15.06      21.89
C       1.54      17.11      19.07
C       1.62      18.00      18.23
C       1.64      19.04      17.29
C       0.48      19.85      17.10
C       0.53      20.89      16.16
C       1.69      21.15      15.43
C       2.84      20.37      15.63
C       2.80      19.32      16.54
N       3.93      16.67      20.44
N      -0.67      19.57      17.81
O       0.55      22.73      14.10
O       2.80      22.54      13.87
