22

O       5.12       6.13       4.27
O       5.63       8.34       4.16
H       7.46       5.77       4.89
H       7.72       5.04       9.80
C       6.14       6.93      10.60
C       5.44       7.25       4.79
Cl       9.61       3.37       8.52
Cl       4.13       8.95       9.56
Cl       3.82       9.22       6.52
Cl       9.59       4.04       5.41
C       5.65       7.24       6.28
C       6.61       6.33       6.82
C       4.93       8.05       7.14
C       7.50       5.62       5.97
C       8.45       4.77       6.48
C       5.97       7.01       9.10
C       5.09       7.94       8.55
C       6.74       6.18       8.23
C       7.67       5.22       8.73
C       8.50       4.53       7.88
O       6.43       8.01      11.20
O       5.99       5.79      11.14
