15

H       7.99       2.84       4.24
C       7.75       0.30       5.51
H       8.85       3.60       5.59
C       8.17      -1.03       6.09
O       6.69       2.74       7.21
H       8.93       1.50       6.85
H       9.67       1.29       5.26
O       5.91       3.69       5.30
H       7.56       0.17       4.44
C       6.81       3.11       6.00
H       6.78       0.53       5.99
O       7.93      -2.06       5.38
C       8.71       1.46       5.78
C       8.14       2.80       5.33
O       8.70      -1.03       7.25
