26

N      19.62       5.95       5.27
O      21.24       3.84       7.75
H      19.53       3.64       6.65
H      22.28       6.56       7.11
H      21.57       8.59       5.50
H      19.35       7.74       4.12
O      17.79       1.84       2.34
O      15.55       2.27       2.38
H      14.43       3.91       3.46
H      14.36       4.70       5.07
H      14.54       5.69       3.64
O      15.43       6.95       5.79
O      17.56       7.22       6.52
C      20.43       4.25       6.91
C      20.54       5.52       6.23
C      21.45       6.56       6.42
C      21.07       7.63       5.58
C      19.94       7.22       4.88
C      18.51       5.23       4.80
C      17.09       3.63       3.59
C      16.76       2.50       2.71
C      16.32       4.63       4.18
C      14.83       4.72       4.07
C      17.15       5.55       4.91
C      16.68       6.65       5.78
S      18.78       3.83       3.87
