12

C       3.24      19.12       3.85
C       3.22      24.32      -3.80
C       3.18      23.46      -2.64
C       3.26      19.95       2.67
C       3.18      22.77      -1.63
C       3.24      20.62       1.65
O       4.37      18.72       4.28
O       2.09      24.65      -4.30
C       3.20      22.03      -0.51
C       3.22      21.36       0.52
O       2.09      18.87       4.34
O       4.38      24.64      -4.20
