17

C       5.10      10.95      11.25
C       5.09       9.22      13.46
C       3.87      10.52      11.82
C       6.31       9.65      12.91
C       3.88       9.65      12.92
C       6.31      10.50      11.82
O       3.95       7.96      15.10
H       7.25       9.30      13.34
H       2.94       9.31      13.35
H       7.24      10.84      11.39
O       6.22       7.96      15.11
O       2.67      10.91      11.33
O       6.26      12.22       9.62
H       2.87      11.52      10.57
C       5.13      11.85      10.09
C       5.09       8.31      14.64
O       3.99      12.21       9.58
