38

H       2.05      13.64       6.88
H       2.05      14.98       9.65
H       3.44      18.27       3.78
H       3.77      15.27       4.44
H       0.53      19.87       6.95
H       0.17      17.58       8.95
H       0.17      11.04       7.57
H       0.53       8.76       9.58
H       3.77      13.36      12.09
H       3.44      10.35      12.74
C       1.98       9.01      11.44
C       1.98      19.61       5.09
C       1.99      18.33       5.75
C       1.29      18.13       6.96
C       1.33      16.90       7.61
C       1.99      15.79       7.03
C       2.66      15.98       5.80
C       2.70      17.23       5.19
C       1.98      14.45       7.60
C       1.98      14.17       8.93
C       2.66      12.64      10.73
C       1.99      12.84       9.49
C       1.33      11.73       8.91
C       1.29      10.50       9.56
C       1.99      10.29      10.78
C       2.70      11.39      11.34
O       2.90       8.75      12.33
O       1.06       8.15      11.14
O       2.90      19.88       4.20
O       1.06      20.48       5.39
O       3.40      17.31       4.02
O       3.31      14.93       5.23
O       0.59      19.12       7.59
O       0.67      16.76       8.80
O       0.67      11.87       7.72
O       0.59       9.51       8.93
O       3.31      13.70      11.30
O       3.40      11.31      12.51
