21

O       7.66       8.24       2.14
O       7.65       5.97       2.16
O      12.49       9.49       2.15
H       9.94       9.23       2.13
H       9.92       3.94       3.04
H       9.90       3.93       1.26
H      12.42       3.96       1.23
H      12.44       3.95       3.01
C       9.73       7.08       2.14
C      12.62       7.07       2.14
C      10.46       5.89       2.14
C      11.87       8.29       2.14
C      11.85       5.90       2.13
C      10.46       8.28       2.13
C      10.37       4.38       2.14
H      13.48       9.26       2.17
C      11.96       4.39       2.13
C      14.09       7.05       2.14
C       8.24       7.10       2.14
O      14.69       5.93       2.13
O      14.69       8.20       2.17
