36

H       3.36      16.34      13.00
H       3.33      16.32      10.50
H       1.34      12.53      13.04
H       1.34      16.36       3.64
H       3.35      12.55       3.68
H       3.33      12.56       6.18
H      -0.64      11.85       9.39
H      -0.64      17.04       7.29
C       2.26      14.39       2.02
C       2.26      14.50      14.66
C       2.33      14.45      13.17
C       2.92      15.50      12.45
C       2.92      15.49      11.07
C       2.39      14.39      10.36
C       1.87      13.30      11.10
C       1.80      13.35      12.49
C       2.40      14.41       8.95
C       2.40      14.48       7.73
C       2.39      14.50       6.32
C       1.87      15.59       5.58
C       1.80      15.53       4.19
C       2.33      14.44       3.51
C       2.92      13.39       4.22
C       2.92      13.40       5.61
S       1.29      11.80      10.33
S       1.29      17.09       6.35
O       1.24      14.94       1.48
O       3.23      13.81       1.42
O       1.24      13.95      15.20
O       3.23      15.08      15.26
O       2.41      11.18       9.60
O       0.65      11.00      11.33
O       0.31      12.30       9.25
O       2.41      17.71       7.07
O       0.65      17.89       5.35
O       0.31      16.59       7.43
