24

C       5.27       3.30       1.89
C       7.54       5.21       7.19
C       5.80       3.61       3.18
C       6.12       3.76       4.35
H       8.09       6.14       7.33
Cl       5.12       6.49       6.20
H       8.85       3.98       5.66
H       8.20       2.15       7.73
O       5.65       2.20       1.36
H       5.54       2.01       6.76
O       8.06       5.93      12.74
O       9.30       4.02      12.65
H       4.80       4.16       8.41
C       7.55       4.38       9.72
C       8.44       4.84      12.18
O       4.42       4.11       1.38
C       7.89       4.55      10.89
C       6.12       2.92       6.89
C       6.48       3.92       5.71
C       7.59       3.00       7.42
C       7.18       4.20       8.37
C       5.70       4.11       7.80
C       7.95       4.01       6.28
C       6.07       5.12       6.67
