40

H       1.14       0.95       0.61
H       5.54      -1.05      -0.58
H       0.05      -0.55      -3.22
H       1.71       0.09      -3.31
H      -0.62       1.41      -1.79
H       1.01       2.07      -1.93
H       0.72       2.26      -4.44
H      -0.53       3.17      -3.58
H      -0.92       1.59      -4.29
H       5.52      -1.37       2.64
H       4.77       0.05       3.45
H       7.76      -0.28       2.88
H       7.02       1.11       3.68
H       6.25      -0.42       5.57
H       8.01      -0.49       5.35
H       6.99      -1.81       4.74
C       2.99       3.28       4.34
C       3.72      -3.31      -4.37
C       2.20      -0.29      -0.78
C       4.48       0.19       0.81
C       3.45      -0.85      -1.14
C       3.24       0.80       1.14
C       4.58      -0.61      -0.33
C       2.11       0.53       0.34
C       3.56      -1.69      -2.27
C       3.14       1.66       2.24
C       3.05       2.41       3.20
C       3.66      -2.42      -3.24
C       0.79       0.07      -2.70
C       0.25       1.48      -2.46
C      -0.14       2.16      -3.76
C       5.62      -0.29       2.84
C       6.93       0.02       3.53
C       7.05      -0.71       4.87
O       1.84       3.67       4.73
O       4.86      -3.77      -4.70
O       4.11       3.56       4.89
O       2.61      -3.54      -4.95
O       1.06      -0.64      -1.46
O       5.61       0.41       1.56
