28

H      11.60       7.27       8.98
C      21.92       8.88       9.77
C       9.85       9.23       9.45
O      22.59       7.82       9.57
O       9.20      10.29       9.23
O      22.38      10.07       9.83
O       9.39       8.06       9.62
F      11.36      11.67      10.14
H      20.24      10.76      10.63
F      14.17       7.09       9.09
F      17.67      10.90      10.92
C      11.35       9.34       9.52
F      14.00      11.69      10.35
C      19.70       9.85      10.38
C      12.11       8.19       9.27
C      18.33       9.80      10.46
C      13.48       8.21       9.40
C      17.60       8.64      10.12
C      14.18       9.38       9.78
C      18.35       7.51       9.76
C      13.40      10.54       9.99
C      19.75       7.55       9.66
C      12.01      10.52       9.87
F      20.36       6.42       9.24
C      20.44       8.73       9.94
F      17.72       6.36       9.44
N      16.21       8.48      10.12
N      15.57       9.55       9.86
