46

H       6.62       8.97       3.16
H       5.67       5.04      -0.76
H       3.66       5.64       0.97
H       4.45       3.72      -4.02
H       4.86       3.30      -2.32
H       6.41       2.47      -4.84
H       6.98       2.20      -3.19
H       5.00       0.75      -2.68
H       5.84       0.14      -4.12
H       4.33       1.06      -4.30
H       4.98       4.14       4.07
H       3.96       3.80       2.63
H       2.99       3.95       5.54
H       1.95       3.67       4.14
H       3.18       1.53       3.61
H       2.56       1.48       5.26
H       4.27       1.81       4.97
H       4.63       9.19      -1.22
H       6.47       8.90       0.67
H       4.92       8.96      -3.70
C       5.58       6.83      -5.11
C       5.08       7.24       0.65
C       5.46       7.34       4.95
C       5.43       6.89      -3.62
C       4.91       8.24      -1.66
C       5.88       8.21       1.28
C       5.07       8.11      -3.03
C       5.96       8.25       2.67
C       5.26       7.34       3.47
C       5.28       3.48      -3.33
C       6.07       2.28      -3.80
C       5.27       0.99      -3.72
C       3.96       4.22       3.65
C       2.96       3.50       4.54
C       3.26       2.00       4.60
C       5.64       5.78      -2.78
C       4.41       6.41       2.84
C       5.45       5.90      -1.40
C       4.33       6.36       1.44
C       5.11       7.12      -0.82
O       5.85       7.93      -5.69
O       6.17       4.61      -3.28
O       3.59       5.61       3.61
O       5.36       8.47       5.54
O       5.37       5.72      -5.69
O       5.73       6.23       5.50
