38

H       2.62       7.30       3.08
H       2.35       4.61       3.35
H       8.58       4.31      -3.93
H       8.82       7.00      -4.14
H       5.00       4.35      -0.77
H       6.15       7.16      -0.06
C       3.76       6.78       1.27
C       3.08       6.53       2.47
C       2.93       5.14       2.60
C       3.55       4.54       1.50
C       7.41       4.77      -2.13
C       8.10       5.06      -3.31
C       8.23       6.45      -3.41
C       7.60       7.02      -2.30
C       9.20       1.66      -0.68
C       9.23      10.14      -0.59
C       1.81       1.53      -0.29
C       1.90       9.80      -0.26
C       7.61       3.59      -1.40
C       8.13       2.60      -0.91
C       7.79       8.30      -1.77
C       8.25       9.31      -1.25
C       3.30       3.27       0.96
C       2.79       2.29       0.44
C       3.52       7.91       0.50
C       2.96       8.86      -0.04
C       5.09       5.31      -0.27
C       6.06       6.20      -0.56
N       4.14       5.54       0.73
N       7.02       5.99      -1.56
O       9.49       0.98      -1.73
O       9.81       1.61       0.43
O      10.37       9.57      -0.36
O       0.61       1.98      -0.29
O       1.68      10.54       0.77
O       1.25       9.84      -1.35
O       9.06      11.36      -0.27
O       2.09       0.46      -0.94
