19

C       5.39       4.58      11.98
C       6.64       4.01      12.24
H       7.55       4.52      11.95
C       6.71       2.76      12.87
H       3.25       4.38      12.16
C       4.29       2.67      12.97
C       8.03       2.12      13.16
C       4.22       3.93      12.36
S       5.26       6.18      11.18
C       5.53       2.09      13.23
H       5.59       1.12      13.71
C       3.03       1.92      13.32
O       6.47       6.27      10.32
O       5.24       7.19      12.23
O       4.03       6.10      10.38
O       9.09       2.81      12.99
O       8.06       0.91      13.57
O       3.11       0.80      13.90
O       1.92       2.49      13.00
