22

H      16.53      18.98      15.34
H      16.38      17.09      13.72
H      17.50      15.39      12.30
H      21.79      15.11      12.28
H      21.95      17.00      13.90
H      20.82      18.74      15.29
C      18.74      20.12      16.35
C      18.69      18.96      15.40
C      17.43      18.49      14.96
C      17.35      17.45      14.07
C      18.52      16.82      13.58
C      18.47      15.75      12.66
C      19.63      15.15      12.20
C      20.90      15.61      12.66
C      20.98      16.65      13.55
C      19.81      17.29      14.04
C      19.86      18.37      14.95
C      19.55      14.03      11.22
O      19.89      20.56      16.68
O      17.62      20.58      16.74
O      18.39      13.70      10.80
O      20.66      13.50      10.87
