22

H       2.14       0.97       5.57
H       2.18      -1.51       5.64
H       6.97      -1.42       8.18
H       5.92       1.23       9.29
H       7.02       1.07       7.89
H       5.47      -2.31       9.86
H       4.93      -0.82      10.20
C       3.89       2.72       6.74
C       4.92       0.52       7.42
C       3.94       1.23       6.73
C       2.94       0.46       6.10
C       2.96      -0.94       6.15
C       3.95      -1.65       6.87
C       4.91      -0.87       7.50
C       6.06      -0.90       8.51
C       6.11       0.68       8.35
C       3.95      -3.13       6.93
N       5.75      -1.33       9.87
O       5.00       3.33       6.56
O       2.76       3.25       6.95
O       5.02      -3.69       7.36
O       2.89      -3.73       6.54
