26

H       4.92       0.70      18.29
H       3.45       0.69      16.30
H       5.12       4.49      15.08
H       6.52       4.51      17.14
H       3.32       0.36      14.24
H       1.86       0.25      12.25
H       1.72       4.53      12.04
H       3.18       4.68      14.07
C       6.71       2.57      19.02
C       5.82       2.60      17.83
C       4.95       1.53      17.58
C       4.13       1.53      16.46
C       4.18       2.59      15.53
C       5.05       3.66      15.79
C       5.85       3.68      16.93
C       3.35       2.53      14.32
C       2.97       1.29      13.78
C       2.15       1.21      12.66
C       1.68       2.38      12.05
C       2.07       3.63      12.55
C       2.90       3.70      13.67
C       0.76       2.31      10.87
O       6.75       1.44      19.65
O       7.36       3.60      19.34
O       0.63       1.15      10.33
O       0.16       3.36      10.51
