36

H       6.82      15.46      10.22
H       7.22      15.06       7.18
C       3.43      16.01       7.42
C       5.16      15.73       8.86
C       3.09      16.30       9.63
C      10.55      14.50      10.07
C      10.98      14.29       7.86
C       8.87      14.79       8.57
C       1.27      15.59       4.01
C      13.45      14.14       4.64
C      12.63      14.85      13.52
C       0.63      16.41      12.85
C      11.09      14.52      11.39
C      11.72      14.61      12.42
C      11.92      14.12       6.80
C      12.74      14.05       5.90
C       1.38      16.57      11.62
C       2.18      16.51      10.71
C       2.15      15.85       5.12
C       2.84      15.95       6.12
C       6.55      15.42       9.17
C       7.48      15.09       8.24
N       4.73      15.70       7.58
N       4.37      16.01       9.93
N       2.56      16.34       8.39
N      11.46      14.22       9.11
N       9.70      14.56       7.52
N       9.25      14.78       9.87
O       1.07      16.50       3.15
O      14.59      13.59       4.49
O      12.79      14.79       3.76
O       0.76      14.41       4.02
O      12.84      13.93      14.36
O      -0.51      16.94      13.00
O       1.25      15.67      13.69
O      13.17      16.01      13.48
