16

C       2.95      -0.36       8.17
C       1.62      -0.50       8.61
S       3.71      -1.86       7.83
S       0.86       1.01       8.94
O       3.43       3.91       8.35
O       3.39      -4.75       8.06
O       1.14      -4.77       8.42
C       2.31       3.33       8.53
O       1.18       3.90       8.72
C       2.26      -4.18       8.24
F       0.03      -2.25       9.08
F       4.54       1.40       7.70
C       1.25      -1.86       8.66
C       3.32       1.00       8.12
C       2.26      -2.72       8.27
C       2.31       1.87       8.51
