72

H       3.28      -2.02       8.39
H      12.23      -7.63       8.34
H       4.23      -1.87      10.91
H      11.28      -7.78       5.81
H       8.46      -3.73      13.46
H       7.06      -5.92       3.26
H      10.62      -5.18      12.80
H       4.89      -4.48       3.93
H       4.14      -2.82      15.15
H      11.37      -6.84       1.58
H       4.68      -4.04      13.02
H      10.84      -5.62       3.71
H       7.73      -1.08      12.28
H       7.79      -8.58       4.44
H       7.06       0.02      14.44
H       8.45      -9.68       2.29
H       2.86      -0.98       3.46
H      12.66      -8.68      13.26
H       4.89      -1.80       4.66
H      10.62      -7.85      12.06
H       2.29      -4.29       7.04
H      13.23      -5.37       9.68
H       0.38      -3.41       5.72
H      15.14      -6.25      11.01
C       5.06      -3.38       8.07
C      10.46      -6.28       8.66
C       4.15      -2.52       8.80
C      11.36      -7.14       7.92
C       4.64      -2.44      10.08
C      10.88      -7.22       6.65
C       5.84      -3.25      10.12
C       9.68      -6.41       6.60
C       6.66      -3.36      11.25
C       8.85      -6.30       5.48
C       7.87      -4.07      11.31
C       7.64      -5.59       5.42
C       8.69      -4.16      12.50
C       6.82      -5.49       4.23
C       9.78      -4.91      12.16
C       5.73      -4.75       4.56
C       9.63      -5.28      10.77
C       5.88      -4.38       5.96
C       4.94      -3.65       6.69
C      10.57      -6.01      10.03
C       4.93      -2.46      14.48
C      10.59      -7.20       2.25
C       5.22      -3.13      13.29
C      10.29      -6.52       3.43
C       6.25      -2.65      12.48
C       9.26      -7.01       4.24
C       6.92      -1.49      12.89
C       8.59      -8.17       3.83
C       6.56      -0.88      14.09
C       8.96      -8.77       2.64
C       2.77      -1.73       4.26
C      12.75      -7.93      12.47
C       3.90      -2.18       4.93
C      11.61      -7.48      11.79
C       3.76      -3.12       5.96
C      11.76      -6.54      10.76
C       2.46      -3.56       6.26
C      13.05      -6.10      10.47
C       1.39      -3.06       5.51
C      14.12      -6.60      11.22
N       8.45      -4.76      10.27
N       7.06      -4.90       6.45
N       6.07      -3.82       8.89
N       9.45      -5.84       7.83
N       5.59      -1.36      14.88
N       9.93      -8.30       1.85
N       1.52      -2.16       4.53
N      13.99      -7.50      12.20
