28

C       8.04       8.62      10.29
C      16.69       8.06       8.65
C      11.20       8.65      12.34
C       9.48       8.63      10.66
H       9.09       8.69      12.79
C      14.84       7.71       7.04
C      14.22       8.23       9.35
C      11.81       8.45       9.97
C      12.19       8.55      11.34
C      13.57       8.51      11.69
C      14.55       8.38      10.74
H      11.51       8.71      13.39
H      10.10       8.55       8.62
H      15.62       7.49       6.31
H      13.84       8.58      12.74
H      11.47       7.97       7.30
H      13.21       7.49       5.64
H      15.59       8.36      11.04
O       7.24       8.07      11.13
O      17.45       7.26       8.00
O       7.70       9.14       9.18
O      17.07       8.93       9.50
C      10.44       8.55       9.66
C       9.86       8.65      12.02
C      15.22       7.99       8.35
C      13.49       7.71       6.67
C      12.51       7.98       7.61
C      12.84       8.24       8.96
