68

H       3.17       0.71       9.12
H       1.81       4.71      10.10
H      -7.48       0.59      18.26
H      -3.93       2.79      17.12
H       2.90      -3.68      17.11
H       0.67      -7.23      18.17
H      -4.44      -2.12       7.06
H      -2.66      -6.06       7.17
H      -2.00       1.20      13.95
H      -3.02      -2.97      13.69
H       0.99      -1.40      14.06
H      -0.89      -0.77      10.65
H       2.06       3.56      12.90
H       0.39       2.01      14.43
H      -1.34      -6.41      16.54
H      -2.62      -4.77      14.79
H      -3.93      -5.88       9.98
H      -3.21      -4.74      12.36
H      -6.79      -1.34      16.35
H      -5.16      -2.54      14.52
C       2.94       1.77       9.16
C       2.22       2.50      10.13
C       2.26       3.82       9.67
C      -6.66       1.29      18.15
C      -5.58       1.27      17.25
C      -4.85       2.42      17.56
C       2.53      -4.61      17.52
C       1.35      -5.30      17.22
C       1.38      -6.42      18.07
C      -4.04      -3.10       6.85
C      -3.44      -4.03       7.73
C      -3.15      -5.13       6.91
C      -0.67      -0.33      12.88
C      -1.89       0.15      13.68
C      -2.75      -0.83      13.99
C      -2.31      -2.19      13.45
C      -0.05      -1.46      13.75
C      -0.92      -2.43      14.07
C      -1.23      -1.04      11.64
C      -2.09      -2.03      11.94
C       1.60       2.07      11.36
C       1.53       2.66      12.60
C       0.68       1.84      13.40
C       0.26       0.80      12.61
C       0.28      -4.94      16.33
C      -0.95      -5.50      16.09
C      -1.62      -4.64      15.18
C      -0.76      -3.59      14.89
C      -3.25      -3.97       9.16
C      -3.51      -4.89      10.14
C      -3.16      -4.28      11.38
C      -2.69      -3.02      11.09
C      -5.27       0.25      16.28
C      -5.86      -0.95      15.95
C      -5.00      -1.58      15.01
C      -3.94      -0.74      14.79
N       2.95       3.88       8.52
N       3.38       2.62       8.20
N      -5.44       3.08      18.58
N      -6.57       2.38      18.94
N       2.50      -6.39      18.82
N       3.21      -5.27      18.48
N      -3.55      -4.89       5.65
N      -4.11      -3.63       5.61
O       0.83       0.92      11.36
O       0.41      -3.78      15.60
O      -2.74      -2.81       9.72
O      -4.10       0.40      15.57
