30

N       2.45       6.98       3.21
H       2.80       7.15      -0.15
C       0.68       6.23       5.51
H       0.41       1.53      10.82
H       3.39       8.36       1.99
C       0.25       5.80       6.75
H       1.09       2.12       8.54
C       0.07       2.46      10.37
C       1.76       5.82       3.30
H      -1.21       5.76       8.96
C       0.46       2.81       9.08
C       1.41       5.09       2.15
H      -1.82       4.99      11.22
C       0.04       4.03       8.52
C       1.78       5.57       0.90
H       1.36       2.57       6.60
C      -0.81       4.82       9.32
C       2.49       6.77       0.82
H       2.10       3.34       4.39
C      -1.17       4.40      10.59
C       2.81       7.44       2.00
H       0.47       7.26       5.20
C       0.48       4.48       7.18
H      -0.26       6.52       7.39
C       1.15       3.60       6.31
H       0.81       4.19       2.26
C       1.57       4.03       5.05
N      -0.72       3.24      11.13
H       1.53       5.04      -0.02
C       1.34       5.36       4.64
