20

O      -1.44       9.85       0.23
O      -2.87      10.78      -1.26
H      -1.58      15.50       0.03
H      -2.82      13.43      -0.46
H       1.48      10.58       0.99
H       1.74      10.63      -0.78
H       2.82      12.69       1.24
H       3.01      12.78      -0.54
C       1.20      15.76       0.31
C      -1.86      10.83      -0.46
C       0.97      13.29       0.15
C       0.36      14.54       0.18
C      -1.04      14.55      -0.01
C      -1.75      13.37      -0.28
C      -1.12      12.11      -0.29
C       0.26      12.11      -0.03
C       1.48      11.23       0.10
C       2.30      12.57       0.27
O       2.26      15.75      -0.40
O       0.86      16.71       1.11
