44

H       6.14       5.98       7.05
N       3.00       6.49       6.65
H       5.62       9.12      -7.20
N       4.06       6.32       7.43
N       6.67      10.93      -7.48
H       8.34      11.48      -4.79
N       7.53      11.69      -6.74
N       2.32       6.58       4.43
N       4.41       8.76      -4.44
N       9.44       7.11      -2.36
O       1.16       6.87       4.90
H       4.66       8.00       3.34
H       6.73       4.39       4.46
O       2.51       6.43       3.22
H       8.53       5.88       0.05
H       5.83       8.01       1.19
H       5.65       6.70      -0.57
H       7.92       4.40       2.28
H       9.06       8.72      -4.32
O       9.53       5.97      -1.86
O      10.40       7.87      -2.54
H       4.78       7.17      -2.43
O       4.17       9.97      -4.49
O       3.64       7.85      -4.77
C       3.38       6.44       5.36
C       5.15       6.12       6.62
C       4.77       6.19       5.27
C       6.30       9.86      -6.77
C       7.71      11.06      -5.56
C       6.95       9.88      -5.53
C       6.92       8.90      -4.46
C       8.11       8.42      -3.90
C       8.12       7.55      -2.81
C       6.92       7.12      -2.17
C       5.73       7.50      -2.84
C       5.74       8.35      -3.92
C       6.00       7.19       1.89
C       5.35       7.19       3.10
C       6.54       5.19       3.74
C       7.20       5.19       2.51
C       6.91       6.17       1.54
C       6.70       6.60      -0.83
C       7.49       6.18       0.19
C       5.58       6.17       4.04
