30

C       8.58       0.78       8.84
H       8.60      -1.16       7.83
H       6.04      -1.16       7.86
H       8.60       1.19       7.82
H       6.05       1.19       7.85
H       5.18      -1.09       9.40
H       9.50      -1.09       9.36
H       8.24       1.19      11.56
H       6.48       1.19      11.57
O       8.48       6.01       9.60
H       8.24      -1.15      11.56
O       6.20       6.01       9.60
H       6.48      -1.15      11.58
O       8.48      -5.98       9.61
O       6.20      -5.98       9.61
F       4.93       1.26       9.52
F       9.75       1.26       9.48
C       7.34       5.44       9.60
C       6.09       0.78       8.87
C       6.08      -0.75       8.88
C       8.58      -0.75       8.85
C       7.34      -3.96       9.60
C       7.34       1.33       9.60
C       7.34      -1.30       9.60
C       7.36      -0.76      11.05
C       7.36       0.79      11.05
C       7.34      -2.75       9.60
C       7.34       2.78       9.59
C       7.34       4.00       9.59
C       7.34      -5.41       9.61
