10

O       5.52       0.34       9.02
C       4.42       2.21       8.13
O       3.90       0.04       7.44
C       3.67       2.91       8.99
H       4.91       2.73       7.30
O       2.70       4.93       9.67
O       4.16       4.94       7.91
H       3.15       2.44       9.83
C       4.63       0.74       8.21
C       3.50       4.37       8.84
