16

S       1.51       8.40      14.05
S      -1.39       5.39      14.03
C       1.49       5.79      14.04
C      -1.37       8.01      14.04
C       2.36       6.87      14.04
C      -2.22       6.92      14.02
C      -0.02       7.60      14.05
C       0.13       6.20      14.04
Cl       1.92       4.13      14.04
O       4.36       8.07      14.05
O       4.44       5.80      14.00
H      -1.74       9.03      14.04
O      -4.26       5.78      13.99
O      -4.27       8.06      14.02
C       3.83       6.91      14.03
C      -3.70       6.93      14.01
