44

C       5.59      12.18       2.20
C       2.28       1.40       0.47
N       6.71      11.63       2.72
C       5.62       9.49       2.73
H       5.62      13.25       2.03
C       4.46      11.43       1.91
C       2.24       7.14       1.28
C       2.29       5.68       1.01
N       1.01       7.66       1.42
C       3.40       7.89       1.48
C       6.71      10.31       2.98
O       1.44       0.65       1.05
H       5.67       8.43       2.99
C       4.46      10.05       2.17
O      -4.77      11.82       3.07
H       3.60      11.92       1.46
C       1.99       9.76       2.03
H       4.38       7.44       1.35
H       7.64       9.90       3.39
H       1.86      10.79       2.36
O      -5.44      10.34       1.50
O       3.15       0.97      -0.39
C       3.28       9.23       1.88
H      -2.40      11.70       3.66
C      -0.50       9.45       1.91
H      -3.63       8.88       0.65
C      -2.14      10.90       2.96
H      -1.27       8.06       0.45
C      -3.15      10.32       2.19
H       0.55       2.91       1.95
C      -2.84       9.30       1.27
H       0.46       5.38       2.09
C       0.88       8.95       1.78
H       4.13       5.65      -0.13
H      -0.04      10.94       3.43
C      -4.56      10.83       2.26
H       4.12       3.19      -0.44
C      -1.53       8.87       1.15
C       1.30       3.51       1.44
C       1.26       4.89       1.56
C       3.33       5.06       0.30
C       2.31       2.88       0.69
C      -0.82      10.48       2.81
C       3.32       3.68       0.13
