36

H      10.35      -7.02      17.32
H      11.21      -4.99      13.62
H      10.33     -10.84      15.23
H      11.22      -8.81      11.53
N      10.25      -4.91      18.81
N      11.31      -2.60      14.60
N      10.32     -13.23      14.26
N      11.24     -10.92      10.03
H      10.40      -4.05      19.34
H      10.27      -5.80      19.27
H      11.16      -1.70      15.03
H      11.29      -2.69      13.60
H      10.16     -14.11      13.77
H       9.96     -13.11      15.20
H      11.40     -11.80       9.56
H      11.59     -10.06       9.63
O      10.49     -14.55      12.03
O      11.07     -13.50      10.12
O      10.61      -2.34      18.76
O      10.95      -1.26      16.80
C      10.78     -13.47      11.38
C      10.78      -2.35      17.47
C      10.78      -3.64      16.77
C      10.53      -4.87      17.47
C      10.54      -6.09      16.78
C      10.78      -6.14      15.40
C      11.02      -4.95      14.69
C      11.03      -3.71      15.35
C      10.78      -7.38      14.72
C      10.78      -8.45      14.13
C      10.78      -9.69      13.45
C      10.52     -10.88      14.15
C      10.53     -12.12      13.50
C      10.78     -12.19      12.08
C      11.03     -10.96      11.38
C      11.03      -9.74      12.07
