30

H       2.91      11.18       2.11
H       8.17       6.28      -0.97
H       4.84       4.42       1.01
H       3.57       6.58       0.88
H       3.34      11.41      -2.16
H       4.52       9.20      -2.15
N       4.33       8.95       2.43
N       7.10       8.71      -1.12
O       1.48      12.89       0.94
H       4.60       7.98       2.41
O       8.22       3.79      -0.85
H       3.74       9.20       3.22
O       2.53      13.50      -0.98
O       7.00       3.10       0.94
H       8.12       8.70      -1.17
H       6.69       9.62      -0.90
C       2.31      12.69      -0.01
C       7.32       3.96       0.04
C       3.06      11.41      -0.02
C       6.58       5.25       0.03
C       3.28      10.74       1.18
C       4.00       9.53       1.22
C       7.17       6.37      -0.54
C       6.50       7.61      -0.56
C       5.29       5.31       0.57
C       4.60       6.52       0.51
C       3.53      10.88      -1.23
C       4.20       9.66      -1.21
C       4.45       8.97      -0.01
C       5.18       7.68      -0.03
