22

H       4.74      10.07      17.13
H       4.75       7.57      13.79
F       2.13       7.36      13.59
F       2.13      10.25      17.34
F      -2.12       7.19      13.73
F      -2.12      10.55      17.08
H      -4.74      10.39      16.83
H      -4.74       7.42      13.91
C       4.16       9.52      16.39
C       2.77       9.53      16.41
C       2.02       8.81      15.47
C       2.77       8.08      14.53
C       4.16       8.11      14.53
C       0.61       8.82      15.45
C      -0.60       8.84      15.43
C      -2.01       8.87      15.41
C      -2.76       9.72      16.24
C      -4.15       9.73      16.19
C      -4.15       8.07      14.55
C      -2.76       8.04      14.56
N       4.82       8.83      15.46
N      -4.81       8.91      15.36
