16

O      -3.15       8.66       2.55
C       0.14       7.38       3.14
C       0.93       6.74       4.08
C       0.33       6.00       5.11
C      -1.06       5.95       5.22
C      -1.86       6.67       4.33
C      -1.26       7.37       3.27
O       2.32       5.85       6.37
O       0.81       4.15       6.55
O      -1.63       7.93       1.03
H      -1.52       5.36       6.02
C       1.22       5.29       6.08
H       0.59       7.90       2.30
H       2.02       6.78       4.02
C      -2.07       8.03       2.21
H      -2.94       6.68       4.43
