28

O      19.09      18.91       3.16
O      13.31      24.87      14.45
H      14.95      25.11      12.65
H      12.79      21.36      12.65
H      19.64      22.40       4.99
H      17.48      18.66       4.99
O      12.17      22.90      14.45
O      20.22      20.88       3.16
C      19.36      20.07       3.64
C      13.03      23.72      13.98
F      14.02      20.42      10.54
F      16.38      24.52      10.54
F      16.10      19.22       7.14
F      18.47      23.32       7.14
C      13.79      23.28      12.77
C      14.76      24.13      12.21
C      15.45      23.71      11.09
C      15.23      22.45      10.48
C      14.25      21.63      11.09
C      13.54      22.02      12.21
C      15.94      22.04       9.34
C      16.55      21.69       8.35
C      17.25      21.29       7.20
C      18.21      22.11       6.58
C      18.90      21.74       5.44
C      18.63      20.49       4.87
C      17.68      19.63       5.44
C      17.02      20.04       6.58
