28

C       8.35      15.93      13.62
C       8.37      19.97      13.63
C       8.36      17.34      13.55
C       8.36      18.56      13.55
H      10.50      15.75      13.63
H      10.48      13.26      13.85
H       6.22      20.15      13.63
H      10.53      20.13      13.63
H       6.19      15.77      13.63
H       6.24      22.64      13.86
H      10.53      22.62      13.86
H       6.19      13.28      13.85
C       8.39      24.27      14.02
O       9.53      24.84      14.06
O       7.19      11.05      14.02
C       8.33      11.63      13.98
O       9.46      11.04      14.03
O       7.26      24.85      14.07
C       9.56      15.20      13.67
C       7.16      20.69      13.68
C       9.59      20.68      13.68
C       7.13      15.21      13.67
C       9.55      13.82      13.80
C       7.17      22.08      13.82
C       9.59      22.06      13.81
C       7.13      13.83      13.79
C       8.33      13.12      13.86
C       8.38      22.77      13.89
