20

H       7.91       4.81       1.55
H       7.23       5.27       3.08
H       2.00       5.83      -1.55
H       2.68       5.37      -3.08
C       5.17       4.53      -3.64
C       4.74       6.12       3.64
C       5.91       5.29       1.55
C       4.00       5.35      -1.55
C       4.79       5.81       2.24
C       5.12       4.83      -2.23
C       4.31       5.51      -0.17
C       5.60       5.12       0.17
S       3.41       6.09       1.19
S       6.50       4.55      -1.19
N       7.09       4.95       2.13
N       2.82       5.68      -2.12
O       4.04       4.60      -4.26
O       3.63       6.44       4.19
O       5.87       6.06       4.26
O       6.29       4.22      -4.19
