92

H       5.39       8.80      18.24
H       9.24       6.47      37.81
H       8.29      10.86      24.64
H       4.72       5.30      31.54
H       5.62       8.76      35.29
H       8.89       6.49      20.90
H       9.55       9.98      31.41
H       5.50       4.74      24.66
H       9.19      10.30      28.97
H       5.25       4.86      27.13
H       7.91      12.66      28.50
H       6.66      11.40      28.35
H       7.36      13.53      26.25
H       6.22      12.21      25.98
H       4.75      13.06      27.83
H       5.02      14.32      26.62
H       5.90      14.37      28.16
H       2.63       5.28      27.81
H       3.48       6.84      27.94
H       1.79       5.49      30.12
H       2.76       6.94      30.39
H       1.42       8.20      28.68
H       0.35       7.52      29.92
H       0.46       6.75      28.33
C       7.15       7.56      16.65
C       7.50       7.66      39.47
C       7.52       8.89      23.03
C       6.36       6.68      33.11
C       6.51       6.59      23.05
C       8.22       8.37      33.05
C       8.11       6.99      20.33
C       6.40       8.24      35.84
C       8.11       6.92      18.94
C       6.45       8.30      37.23
C       6.15       8.28      18.82
C       8.43       6.96      37.25
C       6.12       8.34      20.21
C       8.39       6.88      35.87
C       7.10       7.68      20.98
C       7.37       7.52      35.15
C       6.92       7.80      25.22
C       7.09       7.67      30.91
C       7.47       8.89      24.50
C       6.29       6.75      31.64
C       7.92      10.00      25.19
C       5.37       5.97      30.97
C       6.42       6.67      24.52
C       8.04       8.48      31.59
C       7.14       7.55      18.16
C       7.46       7.66      37.96
C       7.68       8.77      28.79
C       6.20       6.78      27.34
C       6.10       6.84      28.80
C       7.48       8.92      27.35
C       6.96       7.76      29.49
C       6.87       7.84      26.64
C       8.61       9.55      29.50
C       5.72       5.68      26.61
C       8.81       9.39      30.87
C       5.85       5.61      25.22
C       7.91      10.04      26.59
C       5.25       6.02      29.58
C       7.37      12.03      27.79
C       6.64      12.87      26.75
C       5.52      13.70      27.38
C       3.12       5.97      28.51
C       2.18       6.39      29.63
C       1.04       7.26      29.11
N       7.10       7.70      22.41
N       7.30       7.53      33.72
N       5.03       9.12      20.82
N       9.44       6.09      35.19
N       5.42       9.14      37.88
N       9.17       6.10      18.31
O       6.05       7.31      16.10
O       8.60       7.35      40.00
O       6.40       7.94      40.04
O       8.26       7.85      16.11
O       7.92       9.84      22.36
O       5.65       5.94      33.80
O       9.08       8.98      33.68
O       6.12       5.63      22.39
O       4.54      10.03      20.15
O       4.66       8.80      21.96
O      10.53       5.99      35.78
O       9.17       5.58      34.10
O       5.79      10.23      38.32
O       4.26       8.71      37.86
O       8.82       5.26      17.48
O      10.34       6.30      18.70
O       8.39      11.19      27.17
O       4.27       5.23      29.02
