22

H       1.63      15.25      17.84
H      -1.64      17.18      21.94
H      -2.40      13.91      18.50
H       2.38      18.54      21.28
H       2.60      17.04      19.30
H      -2.60      15.39      20.50
C      -0.31      13.64      16.85
C       0.27      18.82      22.92
C      -0.37      14.51      18.06
C       0.35      17.93      21.73
C       1.68      17.05      19.89
C      -1.68      15.38      19.91
C       1.56      17.89      20.98
C      -1.57      14.55      18.81
C      -0.71      17.13      21.37
C       0.71      15.30      18.42
C      -0.61      16.23      20.28
C       0.61      16.19      19.52
O      -1.44      13.30      16.37
O       1.39      19.18      23.42
O       0.83      13.34      16.37
O      -0.88      19.12      23.38
