16

Br      29.96      15.67      27.26
Br      30.05      22.24      29.58
O      33.67      18.39      25.99
O      32.72      16.31      25.95
S      31.79      19.72      27.65
C      32.76      17.54      26.30
S      28.21      18.20      29.17
O      26.27      19.57      30.73
O      27.29      21.62      30.84
C      27.22      20.40      30.48
C      30.51      17.44      27.58
C      29.50      20.48      29.24
C      31.67      18.06      27.12
C      28.33      19.86      29.68
C      30.29      19.60      28.48
C      29.71      18.32      28.35
