26

Br       8.02      16.08      13.16
Br       1.46      11.71      18.20
H       6.28      14.03      13.91
H       3.24      13.73      17.48
H       3.96      10.31      14.00
H       5.28      12.39      13.92
H       5.47      17.51      17.32
H       4.22      15.40      17.46
O       8.12      18.55      14.69
O       1.29       9.28      16.61
O       6.94      19.14      16.53
O       2.49       8.69      14.78
C       7.25      18.33      15.59
C       2.16       9.50      15.71
C       6.56      17.00      15.56
C       2.87      10.82      15.76
C       6.78      15.98      14.61
C       6.08      14.78      14.68
C       2.69      11.82      16.74
C       3.42      13.00      16.70
C       3.82      11.08      14.76
C       4.56      12.25      14.72
C       5.63      16.73      16.57
C       4.93      15.54      16.64
C       5.13      14.53      15.68
C       4.37      13.25      15.70
