48

F       3.54      24.46      17.99
F       1.22      20.87      15.98
F       3.12      20.83       8.09
F       0.81      24.49       6.20
F       1.12      31.08       9.98
F       3.43      31.09      14.15
H       2.30      22.98      12.05
H       2.29      26.71       9.91
H       2.31      26.70      14.21
H       1.27      22.28      13.83
H       3.49      25.55      15.66
H       3.25      22.26      10.23
H       1.03      25.58       8.52
H       1.20      28.57      10.18
H       3.38      28.58      13.94
C       2.26      32.71      12.07
C       2.38      21.90      18.35
C       1.90      21.91       5.77
C       2.24      24.76      10.84
C       2.30      24.07      12.06
C       2.35      24.76      13.28
C       2.34      26.16      13.26
C       2.30      26.88      12.06
C       2.27      26.16      10.85
C       1.80      22.09      15.89
C       1.78      22.75      14.67
C       2.37      24.02      14.56
C       2.97      24.59      15.70
C       2.96      23.90      16.90
C       2.37      22.64      17.04
C       2.70      22.74       9.42
C       2.59      22.08       8.20
C       1.97      22.63       7.09
C       1.44      23.91       7.25
C       1.51      24.61       8.45
C       2.16      24.03       9.55
C       1.70      29.07      11.01
C       1.70      30.46      11.03
C       2.27      31.22      12.07
C       2.86      30.46      13.10
C       2.88      29.08      13.11
C       2.30      28.35      12.06
O       1.31      33.29      11.46
O       3.21      33.30      12.68
O       1.43      22.14      19.16
O       3.33      21.09      18.54
O       0.93      21.12       5.59
O       2.84      22.15       4.94
