20

H      23.33       2.74      20.50
H      20.32       7.04      19.43
H      21.22       7.64      20.85
H      23.04       8.50      19.33
H      22.15       7.91      17.91
Br      25.67       2.98      18.95
C      25.25       6.15      17.81
C      21.09       3.99      21.36
O      26.26       5.45      17.49
O      25.00       7.35      17.43
O      21.26       2.81      21.80
O      20.11       4.77      21.60
C      22.15       4.54      20.46
C      24.23       5.55      18.72
C      22.10       5.83      19.94
C      24.27       4.24      19.27
C      23.11       6.30      19.10
C      23.26       3.76      20.11
C      21.32       7.12      19.89
C      22.46       7.66      18.94
