32

S       4.04       0.84      26.31
S       9.65      -1.91      32.29
N       6.87      -4.01      29.38
N       6.61       2.94      29.42
H       5.45      -4.01      27.88
H       4.57      -1.87      26.82
H       8.34      -3.94      30.82
H       7.95       2.94      31.00
H       9.00       0.79      31.90
H       5.33       2.87      27.80
O       2.90       1.46      27.27
O       3.42      -0.21      25.55
O       4.73       1.93      25.67
O       8.66      -2.71      33.29
O      10.27      -0.87      33.05
O      10.43      -2.88      31.56
H       2.96       2.44      27.22
H       8.82      -3.67      33.18
C       6.07      -3.38      28.52
C       6.02      -1.98      28.45
C       5.17      -1.29      27.52
C       7.68      -3.33      30.20
C       7.69      -1.93      30.26
C       8.48      -1.14      31.17
C       7.40       2.31      30.29
C       7.53       0.91      30.29
C       8.40       0.22      31.20
C       5.89       2.26      28.51
C       5.90       0.86      28.44
C       5.12       0.07      27.52
C       6.82      -1.24      29.36
C       6.75       0.17      29.36
