36

S      11.00      16.10      14.06
S       5.45      19.96      13.84
H       6.20      13.17      14.76
H       6.09      15.67      14.59
H      10.47      13.30      14.27
H       6.23      22.71      13.83
H      10.46      22.48      14.56
H      10.33      19.98      14.59
O       7.29      10.99      14.86
O       9.51      11.04      14.36
O       9.56      24.77      14.44
O       7.34      24.87      13.97
H      10.10      17.63      12.89
H       6.22      18.24      12.86
O      10.73      16.90      12.69
O      12.03      15.16      13.75
O      11.13      17.05      15.13
O       5.67      19.00      12.57
C       8.38      11.59      14.60
O       4.51      20.95      13.40
O       5.19      19.15      15.00
C       8.43      24.24      14.20
C       8.33      13.09      14.53
C       7.10      13.76      14.62
C       7.05      15.14      14.53
C       8.23      15.89      14.35
C       9.46      15.20      14.27
C       9.51      13.82      14.35
C       8.17      17.30      14.27
C       8.16      18.52      14.23
C       8.20      19.94      14.23
C       7.05      20.73      14.03
C       7.12      22.11      14.00
C       8.36      22.74      14.20
C       9.51      21.97      14.41
C       9.44      20.59      14.42
