34

H      23.85       8.91       9.07
H      24.55       7.69       8.14
H      24.93      10.93       9.61
H      28.82      11.65       7.95
H      28.58       9.63       6.51
H      25.47       7.57       6.25
H      28.54       7.45       6.20
H      25.44       6.56       4.29
H      25.22       4.58       2.79
H      29.11       3.24       4.03
H      29.45       5.62       6.68
H      30.17       4.37       5.81
N      24.44       8.68       8.27
N      29.57       5.19       5.77
O      25.99       2.38       1.82
O      28.20       1.99       2.23
O      28.09      13.24       9.77
O      25.87      13.00      10.26
C      25.60       9.45       8.17
C      25.73      10.62       8.93
C      26.88      11.41       8.86
C      27.93      11.03       8.01
C      27.79       9.90       7.22
C      26.64       9.08       7.28
C      26.50       7.89       6.45
C      27.51       7.16       5.94
C      27.38       6.01       5.06
C      26.23       5.81       4.26
C      26.11       4.72       3.41
C      27.17       3.80       3.32
C      28.31       3.97       4.11
C      28.43       5.05       5.00
C      27.11       2.64       2.39
C      26.96      12.64       9.69
