24

H      11.74       5.92       6.49
H      13.91       8.64       9.40
H       9.26       5.91       6.79
H      16.39       8.39       9.30
H      12.03       7.60      10.47
H      13.61       4.82       7.40
N       9.29       6.70       8.69
N      16.35       6.56       8.34
N       9.40       7.62      10.83
N      16.24       4.51       7.23
H       8.39       7.48      10.95
H       9.94       7.99      11.60
H      15.69       3.73       6.93
H      17.23       4.35       7.45
C      11.29       6.27       7.42
C      14.36       7.75       8.96
C       9.92       6.26       7.58
C      15.73       7.62       8.90
C      10.04       7.19       9.72
C      15.60       5.57       7.80
C      11.45       7.24       9.62
C      14.19       5.65       7.81
C      12.08       6.76       8.48
C      13.56       6.73       8.40
