20

O       6.25       1.98       5.57
O      11.22      -2.98       5.58
H       7.74       0.26       4.51
O      12.19      -1.97       7.38
H       9.63       2.24       9.11
H       8.49       1.02       9.73
H      11.47       0.49       9.09
H      10.32      -0.71       9.74
H       9.50      -1.50       4.52
O       7.24       2.93       7.39
C      11.29      -2.08       6.48
C      10.00      -0.22       7.60
C      10.22      -1.05       6.50
C       9.36      -0.86       5.39
C       8.38       0.12       5.38
C       8.17       0.97       6.50
C       9.00       0.75       7.60
C       9.30       1.20       9.01
C      10.44       0.10       9.01
C       7.14       2.04       6.48
