34

C       0.70       3.66      15.56
H       4.41      -0.42       8.38
C      -0.15       4.45      16.32
H       3.31       0.28      10.46
C       2.21       5.52      15.50
H       6.18       3.55      10.63
H       7.15       2.66       8.58
H       3.76       4.56      11.92
H       5.42       4.01      12.28
H       1.93       2.51      11.81
H       2.63       0.90      12.13
H       3.21       1.44      14.39
H       1.51       1.77      14.11
H       4.31       4.92      14.27
N       0.12       5.72      16.66
N       5.84       1.08       8.39
H       4.83       3.24      14.49
N       4.04       2.46      11.94
H       0.41       2.63      15.37
N       2.77       3.48      14.30
H      -1.11       4.05      16.67
H       1.52       7.25      16.58
H       3.15       6.02      15.24
C       1.31       6.23      16.26
C       4.78       0.44       8.94
C       4.16       0.85      10.11
C       4.62       2.01      10.79
C       5.74       2.65      10.21
C       6.30       2.16       9.04
C       4.36       3.79      12.46
C       2.72       1.97      12.36
C       2.52       2.11      13.86
C       4.12       3.89      13.96
C       1.93       4.20      15.09
