20

C       9.01      14.67       6.20
C       8.93      15.51       5.09
C       9.07      14.97       3.80
C       9.30      13.59       3.69
C       9.38      12.83       4.85
H       8.88      15.04       7.21
C       9.25      17.93       1.48
H       8.71      16.57       5.24
C       9.39      17.15       2.62
H       9.42      13.12       2.72
H       9.53      11.75       4.80
C       8.95      15.82       2.61
C       8.38      15.34       1.42
H       9.64      18.96       1.44
H       9.88      17.57       3.50
C       8.24      16.20       0.34
H       8.01      14.32       1.33
H       7.77      15.86      -0.59
N       9.24      13.35       6.08
N       8.66      17.47       0.36
