32

H       3.43      16.87      20.10
H       3.40      19.06      21.29
H       1.02      18.57      16.96
H       1.02      24.90      24.87
H       3.43      26.60      21.73
H       3.40      24.41      20.53
C       2.19      27.20      24.07
C       2.19      16.27      17.75
C       2.22      17.58      18.45
C       2.91      17.73      19.67
C       2.90      18.94      20.33
C       2.25      20.07      19.78
C       1.60      19.90      18.53
C       1.56      18.67      17.89
C       2.26      21.28      20.50
C       2.26      22.19      21.32
C       2.25      23.39      22.04
C       1.60      23.57      23.29
C       1.56      24.80      23.93
C       2.22      25.89      23.37
C       2.91      25.74      22.15
C       2.90      24.52      21.49
N       0.88      21.02      17.90
N       0.88      22.45      23.92
O       1.24      27.40      24.89
O       3.13      28.03      23.81
O       1.24      16.07      16.93
O       3.13      15.43      18.01
O       0.94      22.13      18.45
O       0.24      20.78      16.86
O       0.94      21.34      23.37
O       0.24      22.69      24.96
