19

C       5.46       1.55       4.92
C       3.23       3.86       3.22
C       4.35       0.81       5.33
C       4.33       4.60       2.81
C       3.63       2.75       3.99
C       5.03       2.66       4.16
H       2.21       4.13       2.96
C       6.90       1.25       5.23
S       2.82       1.45       4.79
S       5.85       3.95       3.36
H       7.07       1.23       6.32
H       7.55       2.00       4.78
H       7.18       0.26       4.86
C       4.33      -0.41       6.15
C       4.32       5.82       2.00
O       3.18      -0.91       6.40
O       5.46      -0.87       6.53
O       5.46       6.34       1.74
O       3.18       6.26       1.63
