31

O       6.11      18.50      16.06
O       6.37      20.61      15.25
H      11.02      17.95      12.44
H      12.45      24.33      18.56
H       6.97      17.30      13.74
H      11.19      19.92      13.95
H      12.42      22.52      16.82
H       8.22      21.89      17.55
H       5.43      20.73      15.62
H       8.26      23.71      19.30
C      10.35      25.23      20.01
C       8.97      16.27      12.17
C      10.35      24.13      19.01
C       9.16      23.43      18.74
C       9.13      22.44      17.78
C      10.31      22.12      17.08
C      11.51      22.79      17.37
C      11.53      23.79      18.33
C      10.28      19.33      13.91
C      10.18      18.25      13.06
C       9.20      19.67      14.76
C       9.00      17.50      13.01
C       7.90      17.87      13.78
C       7.98      18.97      14.64
C       6.75      19.32      15.42
N      10.36      21.14      16.06
N       9.23      20.64      15.76
O      11.44      25.86      20.19
O       9.25      25.48      20.59
O       7.88      15.59      12.10
O      10.05      15.95      11.59
