32

H      17.14       7.07      14.49
H      17.40       7.08      12.00
H      17.09      11.37      14.50
H      17.58       7.19       5.14
H      17.59      11.49       5.12
H      17.59      11.50       7.62
N      17.42      11.65      11.86
N      17.61       6.93       7.80
O      17.54      10.45       2.92
O      17.64       8.17       2.93
O      16.83      10.37      16.68
O      16.94       8.09      16.69
H      17.31      11.62      10.85
H      17.10      12.50      12.31
H      17.38       6.97       8.79
H      17.32       6.08       7.32
C      17.58       9.32       3.51
C      16.94       9.23      16.11
C      17.09       9.22      14.62
C      17.19       8.00      13.93
C      17.33       8.01      12.56
C      17.39       9.22      11.83
C      17.31      10.46      12.54
C      17.15      10.44      13.93
C      17.49       9.24      10.43
C      17.54       9.35       9.21
C      17.58       9.35       7.80
C      17.57       8.11       7.10
C      17.57       8.12       5.70
C      17.58       9.33       5.00
C      17.58      10.56       5.68
C      17.59      10.56       7.07
