16

S      11.14       7.35      12.87
S      14.74       8.94      11.48
C      10.10       9.51      14.22
O      10.12      10.75      14.52
C      12.39       9.64      13.02
C      13.48       6.64      11.31
C      11.22       9.00      13.42
C      14.64       7.30      10.92
C      12.66       7.49      12.08
C      13.21       8.78      12.26
C      15.73       6.75      10.11
O       9.19       8.66      14.52
O      16.72       7.52       9.89
Br      12.91      11.40      13.41
O      15.58       5.55       9.68
H      13.27       5.61      11.04
