16

O      10.14      10.67      14.71
O       9.02       8.69      14.45
S      11.05       7.30      12.92
S      14.63       8.94      11.48
C      10.01       9.48      14.27
C      12.27       9.60      13.04
C      13.40       6.62      11.36
C      11.12       8.96      13.46
C      14.54       7.29      10.95
C      12.57       7.47      12.13
C      13.11       8.77      12.27
C      15.63       6.74      10.14
F      12.57      10.88      13.31
H      13.20       5.58      11.11
O      16.58       7.55       9.84
O      15.54       5.51       9.80
