57

H      25.50      27.05      32.97
H      28.99      25.10      31.31
H      31.34      22.71      44.19
H      33.13      19.12      42.55
C      24.33      18.49      36.58
C      24.97      18.87      37.78
C      24.59      18.26      38.98
C      23.59      17.29      38.99
C      22.97      16.89      37.80
C      23.36      17.50      36.59
H      20.67      16.24      39.64
H      22.32      14.58      35.99
C      29.50      22.06      40.15
C      28.88      20.86      39.78
C      29.23      19.68      40.45
C      30.20      19.69      41.45
C      30.81      20.90      41.84
C      30.43      22.09      41.18
H      24.62      18.98      35.65
H      25.10      18.55      39.90
H      23.31      16.82      39.94
H      22.87      17.20      35.66
C      28.28      23.24      35.30
C      27.05      22.71      35.71
C      25.87      23.14      35.08
C      25.93      24.11      34.08
C      27.16      24.63      33.65
C      28.34      24.17      34.27
H      29.23      22.98      39.62
H      28.73      18.75      40.17
H      30.47      18.77      41.96
H      30.91      23.03      41.46
H      29.19      22.91      35.81
H      24.92      22.72      35.40
H      25.01      24.45      33.60
H      29.30      24.58      33.96
N      26.01      20.81      36.76
N      27.95      21.78      37.75
N      26.93      19.88      38.76
C      26.02      19.91      37.77
C      27.00      21.71      36.80
N      27.87      26.82      30.79
N      26.76      27.43      31.31
C      27.87      20.84      38.71
N      33.55      20.35      44.22
N      32.99      21.49      44.74
C      26.36      26.73      32.39
C      27.22      25.64      32.59
C      28.16      25.75      31.55
N      20.69      14.06      37.25
N      20.17      14.59      38.41
C      31.95      21.84      43.95
C      31.81      20.91      42.91
C      32.84      19.99      43.13
C      20.92      15.65      38.76
C      21.94      15.86      37.81
C      21.74      14.82      36.88
