34

N       4.79      14.05       1.15
O       7.45      18.57       1.53
O       5.32      18.08       1.85
O       5.45      14.03       2.20
O       4.89      13.24       0.22
F       2.55      14.22       2.77
H       5.71      14.94      -2.23
H      -2.15      18.84       0.61
H       0.18      15.50      -0.82
H       0.06      15.57       3.07
H       0.89      19.72       2.22
H       1.12      19.01      -0.16
H       3.20      17.89      -0.88
C       6.43      17.11       0.09
C       6.10      15.67      -1.52
C       5.41      16.32      -0.49
C      -1.78      17.90       0.22
C      -0.59      16.20      -0.51
C      -0.46      17.51      -0.03
C       0.33      17.71       2.75
C       4.05      16.16       0.06
C       2.70      15.18       1.84
C       3.81      15.13       0.98
C       3.04      17.12      -0.12
C       1.92      17.15       0.69
C       1.79      16.22       1.76
C       0.64      16.41       2.68
C       0.56      18.73       1.93
C       0.78      18.20       0.50
N       7.60      16.92      -0.57
N       7.40      16.04      -1.56
N      -2.64      16.88      -0.03
N      -1.89      15.83      -0.49
N       6.39      17.98       1.22
