29

C       2.23       2.68       2.67
C       2.22       3.82      11.24
C       1.30       3.15       3.60
C       1.30       3.35      10.31
C       0.91       2.32       4.66
C       0.91       4.18       9.26
C       1.48       1.04       4.72
C       1.48       5.46       9.19
H       2.54       3.30       1.83
C       2.40       5.85      10.16
C       2.40       0.65       3.76
H       2.54       3.20      12.08
C      -0.01       2.80       5.75
H       0.90       4.16       3.48
C      -0.01       3.70       8.17
H       0.90       2.34      10.43
C       0.82       3.25       6.96
H       1.20       0.35       5.52
H       1.20       6.15       8.39
N       2.78       1.46       2.75
N       2.78       5.04      11.17
H       2.85      -0.34       3.76
H       2.85       6.84      10.15
H      -0.63       3.63       5.39
H      -0.63       2.87       8.53
H      -0.69       1.98       6.05
H      -0.69       4.51       7.86
H       1.48       4.07       6.65
H       1.48       2.43       7.27
