22

H       2.80       4.42       6.67
H       2.69       1.92       6.66
H       7.01       1.87       6.67
H       6.96       4.39       6.67
H       1.77      -1.87       6.66
H       6.08      -1.92       6.66
H       5.98      -4.42       6.66
H       1.82      -4.38       6.66
C       3.71       3.82       6.67
C       3.65       2.44       6.66
C       4.85       1.71       6.66
C       6.06       2.41       6.66
C       6.04       3.81       6.67
C       2.71      -2.41       6.66
C       3.92      -1.71       6.67
C       5.13      -2.43       6.66
C       5.07      -3.82       6.66
C       2.74      -3.80       6.66
N       4.88       4.50       6.67
N       4.95       0.30       6.66
N       3.83      -0.29       6.67
N       3.90      -4.50       6.66
