20

O      25.06       6.41       7.36
O      26.40       8.23       7.36
O      22.56      11.05       2.22
O      21.22       9.22       2.22
H      23.72       5.98       6.46
H      23.90      11.47       3.12
O      23.07       6.23       5.74
O      24.54      11.23       3.83
H      21.22       7.81       3.12
H      26.40       9.64       6.46
O      21.65       7.28       3.83
O      25.97      10.18       5.74
C      25.39       7.57       6.90
C      22.23       9.89       2.67
C      24.58       8.16       5.82
C      23.03       9.30       3.75
C      23.46       7.45       5.30
C      24.15      10.01       4.27
C      22.69       8.01       4.27
C      24.92       9.44       5.30
