14

C       8.52       6.34      13.30
C       9.23       4.22      14.73
C       8.34       4.18      13.46
C       9.41       6.38      14.57
N       7.53       5.38      14.01
N      10.22       5.18      14.03
H       9.80       5.03      11.79
H       7.96       5.54      16.25
H       7.82       3.33      13.03
H       9.93       7.24      14.99
Cl       7.96       7.70      12.42
Cl       9.78       2.88      15.65
C       9.33       5.14      12.77
C       8.42       5.43      15.27
