30

H       8.43       6.15       3.41
H       8.45       4.80       7.52
H      10.31       4.78       3.42
H      10.32       6.16       7.52
H       4.72       5.47       5.48
H      14.03       5.45       5.46
C       5.78       6.09       3.05
C       7.91       5.83       4.32
C       6.51       5.80       4.31
C       5.80       4.84       7.90
C       7.92       5.12       6.62
C       6.52       5.14       6.64
C      12.96       4.81       3.04
C      10.83       5.10       4.32
C      12.23       5.12       4.30
C      12.97       6.09       7.89
C      10.84       5.84       6.61
C      12.24       5.80       6.62
C       8.64       5.48       5.47
C       5.81       5.47       5.48
C      10.12       5.47       5.47
C      12.94       5.46       5.46
O       6.42       6.66       2.10
O       4.56       5.72       2.98
O       6.45       4.28       8.84
O       4.57       5.18       7.98
O      12.31       4.25       2.10
O      14.18       5.16       2.96
O      12.33       6.66       8.83
O      14.19       5.72       7.96
