18

C      30.77      17.28      27.64
C      29.55      20.36      29.07
C      31.89      17.93      27.14
C      28.44      19.69      29.55
C      30.39      19.48      28.35
C      29.89      18.16      28.31
N      30.50      15.85      27.63
H      29.72      21.42      29.24
O      34.04      18.17      26.26
O      32.77      16.41      25.56
O      26.39      19.44      30.64
O      29.30      15.53      27.74
O      27.45      21.47      30.73
O      31.45      15.06      27.57
C      32.99      17.45      26.26
S      31.89      19.61      27.52
S      28.39      18.00      29.13
C      27.35      20.25      30.36
