16

C      26.90      15.08      13.39
C      26.93      18.87      10.85
C      27.62      17.06      12.09
C      26.22      16.89      12.11
C      26.94      13.87      14.23
O      28.11      13.42      14.51
O      25.82      13.39      14.61
S      28.42      15.81      12.97
C      26.95      20.11      10.06
S      25.41      18.12      11.24
C      28.03      18.20      11.37
H      29.05      18.54      11.21
O      25.82      20.53       9.65
O      28.10      20.64       9.87
C      25.81      15.76      12.85
Cl      24.17      15.33      13.02
