16

H      11.07       5.93       1.68
H      14.29       4.14      -1.68
O       9.03       5.22       0.45
C       9.83       4.75      -0.42
C      15.53       5.33       0.42
O      16.34       4.85      -0.45
C      11.30       4.89      -0.20
O       9.43       4.18      -1.49
C      14.06       5.19       0.20
O      15.94       5.89       1.49
C      12.21       4.38      -1.14
C      13.16       5.69       1.14
C      11.79       5.55       0.95
C      13.58       4.53      -0.95
H      11.82       3.86      -2.02
H      13.55       6.21       2.02
