10

C       6.14      10.96      12.00
C       6.13      10.25      13.25
C       6.11       9.63      14.31
C       6.10       8.96      15.48
C       6.08       8.35      16.54
C       6.07       7.64      17.79
O       7.28      11.31      11.56
O       5.01      11.15      11.45
O       4.93       7.32      18.25
O       7.21       7.43      18.33
