12

C       4.30       9.44       5.74
C       4.31      10.48       4.90
C       4.31      11.44       4.12
C       4.32      12.47       3.27
C       4.32      13.42       2.49
C       4.32      14.51       1.55
C       4.28       7.39       7.46
O       5.42       7.01       7.89
O       3.14       6.92       7.76
O       5.45      14.93       1.15
O       3.18      14.95       1.20
C       4.29       8.49       6.52
