12

O       4.86       7.14       7.69
O       5.02      15.20       1.13
O       7.30      15.18       1.14
C       6.16      14.76       1.50
C       5.99       7.54       7.26
C       5.99       8.63       6.33
C       6.01       9.59       5.57
C       6.05      10.65       4.74
C       6.08      11.62       3.99
C       6.11      12.68       3.16
C       6.14      13.64       2.40
O       7.14       7.08       7.58
