46

C       6.60      -1.91       7.59
C       5.71      -6.82      10.43
C      11.60      -3.09       5.75
H      12.70      -3.78      11.23
H       1.08      -1.63       9.29
N      13.15      -3.77       8.03
H       1.03      -5.76      10.57
N      13.58      -4.07       9.32
H       9.55      -1.55       8.37
H      10.35      -4.23      11.66
H       7.95      -4.26      12.20
H       3.56      -5.61      10.20
H       5.43      -1.08      10.91
N      -0.41      -3.12       9.46
H       2.99      -1.37      10.70
N      -0.45      -4.42       9.86
H       6.00      -2.83       7.77
H       7.46      -2.16       6.95
O       7.02      -1.33       8.83
H       5.97      -1.16       7.09
O       6.23      -5.50      10.56
H       5.21      -6.96       9.45
H       5.00      -7.06      11.24
H       6.58      -7.49      10.50
H      11.82      -4.17       5.64
H      12.48      -2.48       5.48
O      11.18      -2.79       7.08
H      10.76      -2.82       5.10
C      11.93      -3.21       8.11
C      12.59      -3.67      10.16
C      11.50      -3.15       9.47
C       0.84      -2.65       9.58
C       0.82      -4.76      10.22
C       1.68      -3.66      10.08
C       7.87      -2.14       9.56
C       9.23      -2.14       9.23
C      10.14      -2.92       9.95
C       9.66      -3.63      11.07
C       8.31      -3.65      11.38
C       7.37      -2.95      10.60
C       5.34      -4.45      10.58
C       3.97      -4.62      10.39
C       3.11      -3.51      10.38
C       3.64      -2.24      10.63
C       5.02      -2.08      10.77
C       5.90      -3.16      10.71
