26

C       3.23       3.31       5.75
C       1.73       3.29       5.75
C       1.01       3.58       4.58
C      -0.37       3.51       4.57
C      -1.09       3.13       5.73
C      -0.36       2.85       6.90
C       1.03       2.94       6.91
C      -2.56       3.01       5.71
C      -3.25       2.67       4.53
O      -7.45       2.46       4.56
C      -4.64       2.57       4.51
C      -5.38       2.79       5.68
C      -4.70       3.12       6.86
H      -5.29       3.32       7.75
C      -3.32       3.23       6.87
C      -6.88       2.71       5.67
H      -2.81       3.53       7.79
H       1.56       3.87       3.68
H      -0.92       3.76       3.66
H      -0.87       2.52       7.80
H       1.60       2.70       7.81
H      -2.69       2.47       3.62
O      -7.46       2.91       6.78
H      -5.17       2.32       3.59
O       3.82       3.52       4.64
O       3.80       3.07       6.87
