28

H       0.45       7.61       6.87
H       0.74      12.56       6.95
H       4.46      11.10       9.60
H       4.39       8.60       9.45
H      -2.48       9.05       5.71
H      -1.39       7.67       5.44
H      -1.40       9.05       4.32
H      -1.24      11.48       4.36
H      -1.10      12.78       5.56
H      -2.34      11.51       5.73
C       2.53       7.06       8.48
C       2.66      12.83       8.74
C       2.55       8.55       8.37
C       1.53       9.30       7.70
C       3.61       9.20       8.99
C       0.50       8.70       6.92
C      -0.42       9.44       6.20
C       2.64      11.36       8.50
C       3.65      10.60       9.06
C       1.59      10.74       7.75
C       0.65      11.48       6.98
C      -0.33      10.87       6.23
C      -1.47       8.76       5.38
C      -1.30      11.71       5.43
O       3.66       6.48       8.42
O       3.80      13.41       8.68
O       1.55      13.40       8.99
O       1.41       6.49       8.69
