13

H       7.50       7.71      11.58
H       6.09       7.22      10.57
O       8.49       6.50       9.52
O       7.77       4.69      10.68
H       5.26       7.71      13.05
H       6.67       7.22      14.06
C       7.80       5.92      10.42
C       6.91       6.86      11.22
O       5.00       4.69      13.95
O       4.28       6.50      15.11
O       6.38       6.11      12.32
C       4.97       5.92      14.21
C       5.86       6.86      13.41
