20

H      10.16       8.70       6.22
I      12.55       6.40       5.12
I      10.48       4.04       7.68
I       9.68       8.47      11.06
I      11.74      10.82       8.49
O      14.49       6.51       8.26
H      12.07       6.16       9.95
O       7.73       8.36       7.93
O      14.54       8.78       8.09
O       7.69       6.08       8.05
C      13.96       7.66       8.18
C       8.27       7.21       7.99
C      11.67       7.01       6.93
C      10.56       7.85       9.24
C      10.84       6.11       7.92
C      11.39       8.76       8.25
C      10.60       8.14       7.05
C      11.63       6.72       9.12
C       9.76       7.25       8.02
C      12.47       7.62       8.15
