20

C       5.98       1.72      15.03
C       6.87       0.66      15.00
H       9.99      -3.21      15.21
H       6.41      -2.89      13.02
C       3.68       2.70      14.70
H       4.64      -1.87      14.40
H       3.06       0.06      14.47
H       6.35       2.73      15.22
H       7.94       0.82      15.15
N       7.29      -1.70      14.59
N       8.45      -1.75      15.30
N       8.32      -3.49      13.88
C       9.04      -2.84      14.85
C       7.22      -2.74      13.73
C       6.38      -0.62      14.73
O       4.23       3.87      14.68
C       5.01      -0.85      14.56
O       2.44       2.54      14.65
C       4.13       0.22      14.60
C       4.61       1.53      14.79
