44

O      14.42      14.55      13.05
O      12.77      14.31       4.53
O       2.84      17.57      14.30
O       2.45      15.50      13.45
H      11.89      11.63       7.48
O      12.83      16.47       5.26
H       3.80      19.66      10.47
O      12.82      16.11      13.48
H       4.05      19.66       7.77
H      12.32      11.43      10.15
H       8.18      13.71       7.72
H       9.66      15.81      11.18
H       7.64      17.23      11.15
H       6.18      15.13       7.68
C      10.62      13.33       8.06
C      11.41      12.19       8.27
C      11.63      12.10       9.65
C      10.98      13.17      10.28
C       5.09      17.88      10.36
C       4.42      19.01       9.87
C       4.55      19.00       8.48
C       5.31      17.89       8.12
C       4.13      16.28       4.78
C      13.24      15.01      12.96
C      12.35      15.28       5.25
C       3.08      16.61      13.50
C       4.12      16.87      12.55
C       4.75      17.27      11.58
C       5.04      16.89       5.73
C       5.34      17.34       6.83
C      12.26      14.28      12.22
C      11.46      13.78      11.44
C      11.27      14.88       6.10
C      10.76      14.17       6.95
C       8.08      14.50       8.45
C       9.09      14.69       9.41
C       8.90      15.65      10.41
C       7.76      16.45      10.40
C       6.79      16.30       9.39
C       6.95      15.30       8.44
N      10.25      13.86       9.30
N       5.70      17.23       9.29
O       3.01      15.88       5.26
O       4.36      16.16       3.53
