26

H      12.31      -5.48      11.23
H       9.71      -7.37      12.80
H      10.68      -5.89      12.80
H       9.14      -4.90      11.36
H       8.18      -6.37      11.36
H      10.00      -9.03      11.23
C       8.55      -5.56       8.77
C      12.24      -7.96      12.42
C      12.01      -6.26      10.52
C      10.58      -8.44      10.52
C      11.01      -5.67       9.49
C       9.64      -7.77       9.49
C      10.20      -6.64      12.15
C      11.32      -7.37      11.34
C       9.57      -6.23       9.73
C       9.19      -5.98      11.20
I      13.93      -6.72       9.61
I       7.62      -8.68       9.67
I      11.02      -3.45       9.67
I      11.79     -10.01       9.61
O      11.93      -9.12      12.85
O      13.17      -7.21      12.85
O       8.76      -5.70       7.53
O       7.59      -4.94       9.32
F      11.41      -5.90       8.20
F      10.02      -8.04       8.20
