48

C      -1.77      11.28       2.96
C      -9.35      15.28      -2.58
C      -1.09      10.12       2.58
C      -9.06      15.94      -1.37
C      -1.38       9.46       1.37
C      -8.07      15.47      -0.52
C      -2.37       9.93       0.52
C      -7.36      14.32      -0.88
C      -3.08      11.08       0.88
C      -6.26      13.60      -0.27
C      -4.18      11.80       0.27
C      -5.97      12.49      -1.14
C      -4.46      12.91       1.14
C      -4.94      11.58      -0.88
C      -5.50      13.81       0.88
N      -6.86      12.52      -2.21
N      -3.58      12.88       2.21
O      -4.59      11.06      -6.20
O      -5.85      14.34       6.20
H      -4.74      11.93      -3.82
O      -6.64      10.22      -5.72
H      -5.85      12.95      -4.73
H      -5.70      13.47       3.82
H      -7.81      11.67      -3.85
H      -2.62      13.73       3.85
H      -6.75      10.58      -2.97
H      -3.69      14.82       2.97
H      -8.90      13.63      -3.90
H      -1.54      11.77       3.90
H     -10.12      15.67      -3.24
H      -0.32       9.73       3.24
H      -9.60      16.85      -1.11
H      -0.83       8.55       1.11
H      -7.84      15.99       0.41
H      -2.59       9.41      -0.41
H      -4.72      10.75      -1.55
H      -5.72      14.65       1.55
O      -3.80      15.18       5.72
H      -4.59      12.45       4.73
C      -5.66      10.98      -5.50
C      -4.78      14.42       5.50
C      -5.72      11.94      -4.32
C      -4.72      13.46       4.32
C      -6.84      11.61      -3.34
C      -3.59      13.79       3.34
C      -7.68      13.64      -2.09
C      -2.76      11.76       2.09
C      -8.67      14.12      -2.96
