32

H       7.05       5.81       0.99
H       3.17       4.41      -1.19
H       6.33       7.81      -2.86
H       6.62       6.93      -0.59
H       3.45       3.11       2.98
H       3.12       4.06       0.74
H       8.32       5.75       2.79
H       7.49       5.63       4.36
H       8.30       4.22       3.71
H       1.70       5.97      -3.75
H       2.77       4.87      -4.60
H       2.00       4.35      -3.08
C       4.46       7.29      -4.64
C       5.47       3.34       4.63
C       5.40       3.93       3.27
C       4.55       6.68      -3.29
C       6.44       4.72       2.71
C       6.24       5.22       1.41
C       3.63       5.72      -2.81
C       3.86       5.19      -1.53
C       5.63       7.07      -2.47
C       5.80       6.56      -1.19
C       4.24       3.71       2.52
C       4.06       4.24       1.26
C       5.07       5.01       0.66
C       4.91       5.59      -0.69
C       7.70       5.10       3.43
C       2.47       5.20      -3.60
O       5.54       7.73      -5.15
O       6.60       3.28       5.22
O       4.38       2.90       5.14
O       3.32       7.34      -5.21
