28

O       5.72       7.97       8.00
O       6.59       5.93       8.38
C       6.65       7.11       7.91
O      17.41      11.66       1.27
C      17.35      10.49       1.75
O      18.28       9.62       1.66
C      16.09      10.09       2.48
C      15.94       8.79       3.05
C      14.76       8.42       3.72
C      13.69       9.33       3.86
C      13.82      10.62       3.29
C      15.00      11.00       2.62
C      12.51       8.96       4.53
C      11.49       8.64       5.12
C      10.32       8.26       5.80
C      10.18       6.97       6.36
C       9.01       6.60       7.04
C       7.92       7.51       7.18
C       8.06       8.81       6.61
C       9.24       9.17       5.93
Cl      17.15       7.57       2.98
Cl      14.99      12.60       1.99
Cl      12.51      11.70       3.47
Cl      14.58       6.87       4.41
Cl      11.49       5.89       6.19
Cl       9.42      10.73       5.24
Cl       6.86      10.03       6.68
Cl       9.01       4.99       7.66
