18

N      12.76       5.02      11.20
S      12.75       7.59      14.22
S      12.87       8.25      10.09
O      12.65      12.12      10.71
C      12.78       4.82      14.25
O      13.06      10.90       8.82
O      12.74       3.69      13.61
H      12.76      10.60      12.89
C      12.79       6.09      12.03
C      12.79       9.71      12.26
C      12.85      11.03      10.07
C      12.77       6.02      13.44
C      12.83       9.80      10.88
C      12.79       8.37      12.69
C      12.82       7.45      11.62
H      13.06       5.13      10.24
H      12.85       4.11      11.64
O      12.84       4.98      15.52
