46

H       4.12       8.57      11.85
H       6.58       5.08      11.50
H       3.56       5.28      18.11
H       6.97       7.79      18.77
H       4.46       8.56      14.34
H       6.97       5.09      13.97
H       1.99       6.64      16.22
H       0.18       5.66      14.82
H       0.70       3.80      13.23
H       3.03       2.92      13.09
H       4.82       3.89      14.50
H       8.54       6.67      14.91
H      10.45       8.07      14.19
H      10.71      10.38      15.08
H       9.04      11.28      16.70
H       7.12       9.87      17.42
C       4.94       6.46      20.04
C       4.57       5.95      16.32
C       6.55       7.34      16.69
C       4.39       5.85      17.70
C       6.31       7.27      18.07
C       5.24       6.52      18.58
C       5.67       6.67      15.80
C       4.95       7.81      13.71
C       6.36       5.86      13.51
C       4.75       7.82      12.33
C       6.13       5.85      12.13
C       5.30       6.80      11.54
C       5.72       6.82      14.32
C       4.97       6.74      10.08
C       3.53       5.35      15.44
C       2.21       5.82      15.53
C       1.20       5.27      14.74
C       1.49       4.23      13.86
C       2.79       3.74      13.78
C       3.80       4.29      14.56
C       7.69       8.17      16.22
C       8.64       7.68      15.30
C       9.72       8.47      14.90
C       9.87       9.77      15.40
C       8.93      10.26      16.31
C       7.86       9.47      16.71
O       4.41       5.39      20.48
O       5.21       7.50      20.72
O       5.18       5.62       9.50
O       4.50       7.79       9.54
