70

C       0.00       7.41      18.71
C       0.00      -7.41      18.71
C       1.03       5.91      17.13
C       0.00      -0.00       5.87
C       1.03      -0.62       7.97
C      -1.03       0.62       7.97
C       1.03      -5.28      18.20
C      -1.03       5.28      18.20
C      -1.03      -5.91      17.13
C      -0.00       8.70      19.46
C      -0.00      -8.70      19.46
C      -0.00       0.00       4.39
N       0.00       0.00      14.43
H       1.86       5.68      16.46
H       1.86      -4.59      18.34
H       1.86      -1.08       8.50
H      -1.86       1.08       8.50
C       1.03       7.12      17.81
H      -1.86       4.59      18.34
C       1.03      -0.64       6.58
C      -1.03       0.64       6.58
C       1.03      -6.48      18.91
C      -1.03       6.48      18.91
C      -1.03      -7.12      17.81
H      -1.86      -5.68      16.46
O       0.83       9.59      19.10
O       0.83      -8.84      20.41
O       0.83      -0.76       3.80
O      -0.83       0.76       3.80
O      -0.83      -9.59      19.10
O      -0.83       8.84      20.41
H       1.82       7.85      17.66
H       1.82      -6.72      19.62
H       1.82      -1.13       6.02
H      -1.82       1.13       6.02
C       0.72       2.33      14.66
H      -1.82       6.72      19.62
C       0.72      -0.97      12.30
C      -0.72       0.97      12.30
C      -0.72      -2.33      14.66
C      -0.72       1.36      16.34
C       0.72      -1.36      16.34
H      -1.82      -7.85      17.66
H       1.28       2.25      13.73
H       1.28      -0.51      16.73
H       1.28      -1.73      12.84
H      -1.28       1.73      12.84
C       0.70       3.54      15.35
H      -1.28       0.51      16.73
C       0.70      -2.56      17.04
H      -1.28      -2.25      13.73
C      -0.70      -3.54      15.35
C      -0.70       2.56      17.04
C       0.70      -0.97      10.91
C      -0.70       0.97      10.91
C       0.00       1.22      15.14
C       0.00      -1.22      15.14
H       1.24       4.38      14.93
C       0.00      -0.00      13.02
H       1.24      -1.76      10.39
H      -1.24       1.76      10.39
H      -1.24      -4.38      14.93
H      -1.24       2.62      17.98
H       1.24      -2.62      17.98
C       0.00       3.69      16.56
C       0.00      -3.69      16.56
C       0.00      -0.00      10.18
C       0.00       4.96      17.30
C       0.00      -4.96      17.30
C       0.00      -0.00       8.70
