48

H       6.59      14.32       6.85
H       6.88      16.29      10.51
H       9.01      14.48      10.42
H       8.63      16.13       6.55
H       6.35      10.82       7.13
H       6.50      19.79      10.22
H       8.03      11.87      12.29
H       9.12      13.28      12.15
H      10.06      10.41      12.64
H      11.09      11.84      12.58
H       9.87      12.79      14.61
H      10.60      11.21      14.97
H       8.86      11.33      14.66
H       7.19      20.07       5.93
H       6.98      18.50       5.11
H       9.03      20.68       4.41
H       8.99      19.08       3.66
H       6.68      19.52       2.77
H       7.77      20.83       2.27
H       6.64      21.09       3.60
C       7.91      10.26       8.67
C       7.84      20.34       8.45
C       7.15      13.82       7.64
C       7.29      16.78       9.63
C       7.13      12.43       7.70
C       7.21      18.18       9.53
C       7.89      11.74       8.69
C       7.77      18.85       8.42
C       8.56      12.50       9.68
C       8.26      18.08       7.34
C       8.49      13.90       9.66
C       8.26      16.69       7.41
C       7.82      14.56       8.62
C       7.81      16.04       8.56
C       9.05      12.19      12.01
C      10.09      11.49      12.87
C       9.84      11.72      14.36
C       7.72      19.28       5.37
C       8.36      19.85       4.12
C       7.30      20.35       3.14
O       8.96       9.63       9.01
O       6.79      20.94       8.92
O       6.83       9.69       8.24
O       8.90      20.93       8.09
O       6.37      11.76       6.80
O       6.62      18.86      10.55
O       9.28      11.83      10.63
O       8.74      18.68       6.19
