22

C       3.92      10.34       4.51
C       3.82       9.56       5.61
C       3.05      14.78       6.70
C       3.62       7.14       4.66
H       3.09      14.67       3.44
H       3.70      12.24       3.51
H       3.87      12.17       6.58
H       3.98       9.86       3.53
H       3.73      10.05       6.59
N       2.55      16.02       4.97
N       2.57      15.98       6.34
N       3.27       5.95       5.20
H       3.79       7.23       3.59
N       3.10       6.10       6.55
Cl       3.15       8.02       8.41
Cl       3.17      14.37       8.35
C       3.34       7.39       6.83
C       3.68       8.13       5.67
C       3.03      14.85       4.51
C       3.36      13.99       5.57
C       3.82      11.79       4.50
C       3.74      12.60       5.58
