20

H      11.59       9.22       5.86
H      14.52       9.24       4.90
H      12.82      12.81       1.29
H      11.09      13.63       2.86
H      12.89      10.21       6.56
H      13.20       8.29       4.16
C      14.32      10.47       1.52
C      12.18      10.96       4.61
C      12.45       9.86       5.62
C      13.47       9.27       4.57
C      10.44      12.57       5.36
C      13.10      10.45       3.69
C      13.37      11.09       2.48
C      12.63      12.27       2.22
C      11.66      12.74       3.11
C      11.41      12.09       4.34
O      14.13       9.24       1.28
O      10.63      12.15       6.54
O      15.27      11.19       1.02
O       9.48      13.36       5.01
