16

O      14.27      18.32      26.16
O      13.17      16.34      25.85
O       6.76      19.53      30.77
O       7.80      21.56      30.81
H      10.18      21.45      29.52
S      12.30      19.68      27.71
S       8.68      18.13      29.12
C      13.28      17.52      26.33
C       7.71      20.33      30.47
Br      10.46      15.65      27.17
C      11.00      17.41      27.55
C       9.96      20.42      29.26
C      12.18      18.03      27.14
C       8.80      19.77      29.66
C      10.77      19.55      28.50
C      10.20      18.27      28.33
