24

H       2.52      -1.04       7.29
H      13.10      -4.94       6.06
N       1.17      -3.80       6.29
N      14.27      -3.44       8.66
C       2.46      -4.07       6.07
C      13.05      -2.89       8.60
N       1.10      -2.55       6.80
N      14.39      -4.32       7.65
N       2.80      -5.35       5.55
N      12.62      -2.08       9.69
C       2.35      -2.04       6.90
C      13.24      -4.30       6.92
O       3.99      -5.65       5.41
O       1.84      -6.13       5.28
C       3.29      -2.98       6.45
C      12.32      -3.39       7.49
O      11.53      -1.50       9.60
O      13.36      -2.04      10.71
C       4.68      -2.90       6.45
C      10.99      -3.17       7.15
C       5.91      -2.86       6.50
C       9.79      -3.05       6.92
C       7.24      -2.88       6.60
C       8.47      -2.94       6.72
