32

C      21.82      19.49      14.72
C      20.80      19.16      14.13
C      19.62      18.79      13.45
C      19.49      19.07      12.08
C      18.34      18.70      11.40
C      17.26      18.04      12.08
C      17.43      17.77      13.48
C      18.59      18.14      14.15
H      24.03      20.52      13.60
H      22.24      19.30      17.36
H      20.29      19.57      11.53
H      18.69      17.92      15.21
O      15.10      17.06      12.04
O      15.95      17.91      10.12
O      27.55      21.52      16.79
O      26.64      20.83      18.75
H      26.98      21.50      15.24
H      25.15      20.19      19.12
O      26.25      21.27      14.60
H      17.39      18.66       9.76
O      18.27      18.99      10.08
O      24.25      19.89      18.81
O      16.47      17.15      14.21
C      16.05      17.65      11.38
H      15.72      16.96      13.58
C      26.57      21.00      17.47
C      25.36      20.62      16.77
C      25.25      20.77      15.34
C      24.08      20.40      14.68
C      23.00      19.87      15.40
C      23.08      19.71      16.80
C      24.24      20.07      17.48
