38

O       1.46       9.49      21.74
O      -1.46      20.49      32.87
H       1.72      18.65      31.69
H      -1.72      11.33      22.91
H       1.90      16.84      29.99
H      -1.90      13.14      24.62
O      -2.65      19.38      30.73
H      -2.23      17.51      28.95
H       2.23      12.48      25.65
O       2.65      10.60      23.87
H      -2.07      15.24      28.64
H       2.07      14.74      25.96
H      -1.94      13.50      26.91
H       1.94      16.48      27.69
H      -3.30      19.06      30.09
H       3.30      10.92      24.52
C       0.35       9.88      22.21
C      -0.35      20.10      32.40
C       0.86      18.38      31.08
C      -0.86      11.60      23.53
C       0.97      17.40      30.11
C      -0.97      12.58      24.50
C      -0.16      17.05      29.33
C       0.16      12.93      25.27
C      -1.36      17.73      29.57
C       1.36      12.25      25.04
C      -1.47      18.73      30.55
C       1.47      11.25      24.06
C      -0.34      19.07      31.33
C       0.34      10.91      23.28
C      -1.17      15.15      28.04
C       1.17      14.83      26.57
C      -1.09      14.17      27.06
C       1.09      15.82      27.54
C       0.08      13.98      26.31
C      -0.08      16.00      28.30
O      -0.80       9.47      21.81
O       0.80      20.51      32.80
