22

H       6.37       2.16       9.34
H       4.94       0.86      10.85
H       6.56      -2.81       9.30
H       5.04      -1.64      10.83
C       8.11       2.66       7.52
C       8.18      -3.15       7.36
C       8.14       1.16       7.51
C       7.28       0.43       8.39
C       8.98       0.50       6.63
C       6.41       1.08       9.31
C       5.61       0.34      10.16
C       8.18      -1.66       7.43
C       9.00      -0.92       6.58
C       7.32      -1.00       8.36
C       6.50      -1.73       9.28
C       5.66      -1.07      10.15
Cl       9.99      -1.71       5.42
Cl       9.97       1.37       5.51
O       9.20       3.26       7.77
O       9.27      -3.76       7.59
O       7.06      -3.71       7.11
O       6.99       3.22       7.29
