23

H       1.52       9.23       4.02
H       2.10      10.66       5.96
H       4.21      13.35       3.32
H       3.72      11.83       1.42
H       3.94      13.11       9.31
H       3.53      11.49       7.46
H       3.48      14.86       4.75
H       3.99      16.31       6.71
C       2.24       9.57       1.42
C       2.59      10.44       2.60
C       2.14      10.12       3.89
C       2.46      10.93       4.97
C       3.19      12.13       4.79
C       3.62      12.45       3.49
C       3.35      11.61       2.42
C       3.84      13.45       8.28
C       3.60      12.56       7.24
C       3.47      13.03       5.92
N       3.97      14.77       8.08
C       3.60      14.42       5.74
C       3.86      15.24       6.83
O       1.11       9.01       1.46
O       3.10       9.49       0.48
