12

N       0.23       7.98       8.09
O       1.05      10.47       7.47
O       3.17      10.99       8.08
H       3.63       8.45       7.84
O       1.16       5.46       8.34
O       3.32       6.07       8.03
C       2.24      10.17       7.79
C       2.08       6.30       8.14
O      -0.41       7.73       7.07
O      -0.23       8.33       9.18
C       2.58       8.73       7.86
C       1.69       7.75       8.02
