20

N       5.94      11.91       5.02
N      12.01       8.27       5.11
H       6.58      12.73       3.24
H       7.44       9.51       6.84
H       8.65      11.33       3.11
H      12.02       8.33       3.04
H       5.44      11.01       6.82
H       9.78       9.43       2.86
H       9.62       9.42       7.18
H      11.85       8.31       7.17
C       6.81      11.99       4.00
C       9.50       9.53       5.01
C       7.30      10.21       6.02
C       7.96      11.20       3.94
C      11.44       8.58       3.93
C       8.24      10.30       4.98
C       6.18      11.03       6.01
C      10.20       9.20       3.84
C      10.09       9.17       6.23
C      11.34       8.56       6.23
