18

C      16.12      13.26      26.38
C      16.02       7.01      30.53
C      17.20      11.35      27.74
C      14.94       8.92      29.18
C      16.12      12.05      27.19
C      16.02       8.23      29.72
C      15.37      10.06      28.45
C      16.76      10.21      28.46
O      17.24      13.79      26.11
O      14.96      13.68      26.01
H      19.07      11.12      28.06
H      13.07       9.16      28.85
O      17.18       6.59      30.90
O      14.89       6.47      30.78
O      18.49      11.74      27.58
O      13.65       8.54      29.33
S      14.58      11.31      27.56
S      17.56       8.97      29.35
