22

H       6.14       5.76       2.47
H       1.87       5.40       2.16
H       7.54       5.75       0.40
H       2.04       5.25      -0.33
H       7.70       5.61      -2.09
H       3.45       5.23      -2.39
C       5.69       5.42      -3.87
C       4.20       5.42      -0.37
C       3.89       5.60       3.94
C       4.01       5.58       2.45
C       5.57       5.43      -2.38
C       6.65       5.64      -0.21
C       6.74       5.57      -1.58
C       4.33       5.35      -1.77
C       5.38       5.58       0.44
C       5.25       5.65       1.84
C       2.84       5.44       1.65
C       2.93       5.36       0.28
O       4.60       5.35      -4.54
O       6.86       5.51      -4.37
O       2.71       5.59       4.43
O       4.97       5.63       4.61
