13

C      16.36      11.40       2.19
C      18.05       8.47       5.57
H      17.75      12.03       3.71
O      16.42      12.43       1.48
O      18.97       8.00       6.28
H      19.30       9.36       4.04
H      18.45      11.00       2.42
O      15.40      10.54       2.23
H      18.75      10.48       5.33
O      16.83       8.07       5.52
C      18.44       9.64       4.68
C      17.57      11.15       3.08
O      17.33      10.01       3.88
