30

H      23.67       9.89      14.49
H      25.19      16.87      17.66
H      25.76      16.61      13.41
H      24.41      14.51      13.36
H      20.40      11.78      16.54
H      21.59      13.97      16.38
N      25.19      12.05      14.28
N      23.91      14.57      17.93
O      26.11      18.93      16.55
O      21.62       8.52      14.72
H      25.78      12.84      14.52
H      25.69      11.17      14.21
H      23.23      13.82      17.90
H      23.85      15.19      18.72
O      27.18      18.31      14.64
O      20.41       9.23      16.51
C      26.34      18.12      15.58
C      21.29       9.39      15.60
C      21.99      10.71      15.54
C      25.55      16.85      15.54
C      23.24      10.79      14.92
C      23.95      12.00      14.89
C      25.02      16.34      16.72
C      24.31      15.12      16.72
C      25.35      16.19      14.32
C      24.61      15.02      14.31
C      21.39      11.85      16.09
C      22.06      13.06      16.01
C      23.35      13.17      15.45
C      24.09      14.45      15.49
