41

H       6.50       9.74      11.75
H      10.70       9.97      12.82
H       2.76       4.08      21.83
C       8.31       8.17      13.51
C       9.32       7.66      14.39
C       8.97       6.76      15.39
C       7.64       6.32      15.54
C       6.66       6.72      14.57
C       7.02       7.63      13.58
C       5.73       4.65      18.71
C       5.02       4.51      19.89
C       7.11       4.92      18.74
C       5.65       4.64      21.15
C       7.05       4.76      21.16
C       7.77       4.90      19.98
C       4.26       6.82      13.99
H       3.93       4.39      19.85
H       5.21       4.62      17.75
N       8.04      11.09      11.32
H       6.26       7.99      12.89
H       9.71       6.44      16.13
H       8.85       5.06      19.99
H      10.33       8.07      14.35
H       7.58       4.80      22.12
N       9.37      11.15      11.66
N       3.02       5.10      23.67
N       4.09       5.66      24.30
N       7.11       5.66      16.63
N       7.86       5.35      17.62
N       5.39       6.24      14.69
H       5.23       5.75      15.57
H       3.34       6.35      14.35
H       4.33       6.64      12.91
H       4.18       7.91      14.15
H       6.14       5.87      23.86
C       7.55       9.99      11.89
C       9.69      10.10      12.44
C       8.54       9.31      12.63
C       3.46       4.57      22.50
C       5.18       5.48      23.54
C       4.84       4.80      22.35
