36

I      16.64       4.44      26.71
H      19.91       3.58      21.77
I      15.52       8.33      19.81
H      17.23       5.96      24.16
I      21.62       7.93      19.41
H      16.43       6.22      21.83
O      18.58      13.26      16.08
H      20.72       5.91      21.52
O      18.57      11.65      14.48
H      18.53       7.59      17.10
H      18.61      10.63      20.14
O      17.46       1.26      26.15
H      18.53       9.36      15.34
O      19.68       1.58      26.47
H      18.61      12.40      18.37
C      18.57       7.95      19.78
C      17.80       4.06      24.98
C      19.34       2.75      23.68
C      19.34       3.73      22.68
C      17.80       5.05      24.01
C      18.57       4.89      22.84
C      18.57       2.89      24.85
C      17.37       6.54      21.39
C      19.77       6.34      21.19
C      17.38       7.52      20.40
C      19.76       7.34      20.21
C      18.57       5.94      21.80
C      18.57      12.04      15.70
C      18.55       8.65      17.37
C      18.59      10.36      19.09
C      18.55       9.63      16.39
C      18.59      11.34      18.10
C      18.57      10.98      16.75
C      18.57       9.00      18.73
C      18.57       1.82      25.91
I      20.50       1.03      23.30
