16

H       0.29       5.90       5.23
H      -2.23       5.90       5.31
H      -2.12       3.37       9.88
H       0.49       4.97      10.35
H       0.40       3.29       9.71
C      -0.18       4.84       8.25
C      -0.24       5.59       6.13
C      -1.64       5.60       6.17
C      -1.57       4.88       8.30
C      -1.62       4.33       9.72
C      -0.02       4.30       9.65
N       0.51       5.19       7.18
N      -2.34       5.23       7.28
N      -2.10       5.30      10.78
O      -2.06       6.50      10.51
O      -2.43       4.80      11.86
