26

H      -3.50      -5.03      13.34
C      -4.08      -7.48      11.24
C      -4.86     -10.68      21.97
C      -3.85      -7.12      12.60
C      -4.73     -11.12      20.63
C      -4.35      -8.70      10.50
C      -4.26      -9.62      22.76
H      -4.65     -10.56      10.62
H      -3.14      -8.11      22.75
H      -5.55     -13.05      19.82
N      -3.78      -5.31      11.23
C      -3.68      -5.72      12.52
N      -4.01      -6.38      10.46
N      -5.90     -12.61      21.88
N      -5.58     -11.58      22.68
C      -5.41     -12.36      20.64
O      -4.44      -8.72       9.25
O      -4.49      -9.82      11.24
O      -4.38      -9.57      24.01
O      -3.53      -8.72      22.09
C      -3.77      -7.89      13.76
C      -4.19     -10.51      19.50
C      -3.66      -8.46      14.84
C      -3.87     -10.05      18.40
C      -3.62      -9.04      16.05
C      -3.67      -9.53      17.18
