17

H       3.44       6.70       1.17
H       2.40       7.48      -1.03
H       3.91       8.31      -1.37
H       3.24       7.19      -2.58
H       6.36       5.81       0.83
H       5.26       4.45      -0.93
C       4.58       4.93      -2.96
C       5.43       6.10       2.80
C       4.31       6.35       0.61
C       5.42       6.06       1.32
C       4.16       6.25      -0.84
C       4.68       5.19      -1.49
C       3.38       7.36      -1.51
O       5.68       4.71      -3.56
O       3.42       4.95      -3.49
O       6.57       6.11       3.37
O       4.30       6.10       3.40
