30

Br       4.26       6.54       4.14
Br       6.50       4.29      -4.14
O       9.34       1.45       1.15
O       9.34       1.45      -1.12
H       7.77       3.02       2.16
H       6.25       4.53       3.40
H       7.79       3.00      -2.13
H       2.99       7.81      -2.16
H       4.51       6.29      -3.40
O       1.42       9.39       1.12
O       1.42       9.38      -1.16
H       2.97       7.83       2.13
C       7.38       3.41       1.22
C       8.93       1.86       0.02
C       6.39       4.40       1.23
C       5.86       4.93       2.46
C       7.39       3.40      -1.20
C       6.40       4.39      -1.24
C       5.86       4.94      -2.46
C       4.38       6.42      -1.23
C       4.90       5.90      -2.46
C       3.39       7.42      -1.22
C       4.36       6.43       1.24
C       4.90       5.89       2.46
C       7.87       2.92       0.01
C       5.88       4.91      -0.01
C       2.89       7.91      -0.02
C       4.88       5.92       0.01
C       3.37       7.43       1.20
C       1.83       8.98      -0.02
