26

H      17.73      20.31      11.72
H      20.27      17.87      12.47
H      18.63      16.21      12.47
H      17.74      17.09      11.21
H      19.38      18.74      11.21
H      19.86      18.21      14.74
H      18.28      16.62      14.74
H      16.16      18.72      11.72
C      20.10      20.38      13.09
C      16.11      16.35      13.09
C      17.59      19.98      12.75
C      18.89      18.69      14.60
C      17.79      17.59      14.60
C      16.49      18.88      12.75
C      19.29      18.28      12.20
C      18.21      17.19      12.20
C      18.93      19.40      13.24
C      17.08      17.54      13.24
I      17.07      21.93      13.62
I      18.98      20.04      16.33
I      16.45      17.48      16.33
I      14.54      19.37      13.62
O      19.99      21.27      12.19
O      21.12      20.15      13.81
O      16.35      15.34      13.81
O      15.22      16.46      12.19
