60

H       2.00      14.21       1.08
H       1.97       9.91       1.08
H       2.03      12.06       4.80
H       3.17      15.62       2.30
H       0.76      13.81       5.39
H       0.82      13.85      -0.76
H       3.23      10.27      -0.73
H       3.19       8.52       2.29
H       0.81      10.31       5.40
H       0.20      16.83       7.14
H       0.01      15.18       7.10
H       3.79      18.58       4.10
H       3.93      17.77       2.66
H       0.21      13.77      -4.22
H       0.07      14.62      -2.80
H       3.80      10.26      -4.22
H       3.99       9.47      -2.77
H       3.53       5.37       3.93
H       3.95       6.36       2.59
H       0.47       7.33       7.32
H       0.05       8.99       7.12
C       2.00      12.02      -4.88
C       2.00       5.84       5.92
C       1.99      18.28       5.94
C       2.02      12.06       0.90
C       2.00      13.26       1.62
C       1.98      13.28       3.02
C       1.99      12.06       3.71
C       2.00      10.84       3.02
C       2.01      10.85       1.62
C       2.64      16.90       3.94
C       2.61      15.69       3.23
C       1.97      14.56       3.76
C       1.33      14.66       5.00
C       1.31      15.87       5.72
C       1.99      16.99       5.19
C       1.39      13.08      -1.29
C       1.35      13.06      -2.69
C       2.01      12.03      -3.39
C       2.69      11.01      -2.68
C       2.66      11.03      -1.28
C       2.02      12.05      -0.58
C       2.64       8.44       3.23
C       2.67       7.22       3.92
C       2.00       7.09       5.19
C       1.33       8.25       5.71
C       1.36       9.46       5.00
C       2.00       9.56       3.76
N       0.66      15.94       6.95
N       3.29      18.02       3.41
N       0.71      14.08      -3.39
N       3.33       9.98      -3.36
N       3.29       6.15       3.32
N       0.71       8.24       6.94
O       1.05      19.11       5.70
O       1.06      11.41      -5.49
O       1.09       5.61       6.81
O       2.94      18.50       6.77
O       2.92       4.95       5.68
O       2.94      12.65      -5.48
