20

C      12.88      15.50       3.05
C      14.89      14.36       4.79
C      14.00      16.22       3.45
C      13.74      13.63       4.38
C      14.96      15.66       4.29
C      12.78      14.19       3.54
C      14.72      17.55       3.34
C      15.81      16.92       4.29
H      11.92      13.58       3.25
H      15.06      17.81       2.33
H      14.17      18.41       3.75
H      15.92      17.41       5.27
H      16.81      16.81       3.85
Cl      13.43      12.00       4.88
C      15.97      13.85       5.69
C      11.83      16.06       2.16
O      15.90      12.65       6.09
O      16.90      14.68       5.98
O      10.84      15.30       1.88
O      12.01      17.26       1.76
