66

H       8.47       3.74       9.49
H       5.65       0.90       5.19
H       4.05       1.34       5.86
H       4.95      -1.56       5.47
H       3.32      -1.00       5.84
H       3.26       0.20       3.57
H       3.46      -1.56       3.41
H       4.86      -0.48       3.21
H       8.02      -0.05       6.00
H       9.52      -0.98       5.72
H       9.34       1.95       6.62
H      10.85       1.05       6.46
H      10.39       0.71       3.98
H      10.41       2.44       4.39
H       8.87       1.61       4.15
H       4.71      -0.52      12.14
H       5.86      -1.87      11.93
H       2.89      -2.01      11.15
H       4.01      -3.37      11.26
H       4.27      -2.94      13.76
H       2.60      -3.31      13.32
H       3.07      -1.63      13.63
H       8.77       0.20      12.09
H       7.11       0.40      11.48
H       8.84       2.64      12.67
H       7.18       2.83      12.11
H       6.39       1.19      13.89
H       7.24       2.57      14.61
H       8.06       1.01      14.45
H       5.42       2.94       6.57
H       8.99      -3.09       7.33
H       5.33      -3.55       9.55
C       7.01       4.88       7.51
C       8.19      -2.65       7.93
C       6.13      -2.91       9.20
C       7.80       3.04       9.00
C       6.97       3.46       7.96
C       7.14      -3.46       8.40
C       6.93       0.78       8.78
C       7.09      -0.69       8.89
C       7.09      -4.89       7.97
C       4.82       0.54       5.83
C       6.07       1.24       7.75
C       4.23      -0.75       5.28
C       3.93      -0.64       3.78
C       9.08      -0.15       6.30
C       9.83       1.15       6.05
C       9.88       1.49       4.56
C       4.92      -1.42      11.55
C       3.76      -2.40      11.71
C       3.41      -2.58      13.18
C       8.07       0.92      11.65
C       7.88       2.12      12.58
C       8.15      -1.28       8.18
C       7.36       1.70      13.96
C       6.12      -1.54       9.46
C       7.77       1.71       9.42
C       6.08       2.57       7.35
O       5.94       5.41       7.07
O       5.32       0.27       7.14
O       9.16      -0.46       7.71
O       5.12      -0.94      10.20
O       8.65       1.30      10.39
O       8.15      -5.39       7.46
O       5.98      -5.50       8.10
O       8.14       5.48       7.62
