15

H       9.64       9.68      15.51
C       9.87      10.05      13.39
N      11.13      10.56      13.21
C       7.29       9.07      13.07
C       9.18       9.63      14.53
C       7.96       9.50      11.93
N      11.30      10.81      11.91
H       6.29       8.67      12.98
O       5.92       8.32      15.53
C       7.88       9.14      14.36
C       9.27       9.99      12.11
N      10.21      10.47      11.23
H       7.51       9.45      10.94
O       7.85       8.58      16.65
C       7.14       8.65      15.58
