12

O      14.50       4.11       1.63
C      12.99       4.55       8.72
C      13.13       4.33       7.41
C      12.86       4.77       9.92
O      12.93       6.34      11.60
O      11.83       4.37      11.95
C      13.82       3.28       2.34
C      12.54       5.19      11.25
O      13.44       2.13       2.01
C      13.50       3.71       3.68
C      13.36       3.93       4.88
C      13.23       4.15       6.19
