27

C       1.99       2.05       3.94
C       3.89       3.51       3.25
C       3.81       1.24       2.40
C       7.90       1.65      -2.55
C       7.17       2.47       0.01
C       6.20       2.43      -1.00
C       3.24       2.27       3.17
C       6.57       2.02      -2.28
C       8.28       1.18      -3.91
C       8.85       1.69      -1.53
C       5.09       3.73       2.58
C       8.50       2.11      -0.25
C       5.65       2.69       1.83
C       5.01       1.44       1.73
H       3.45       4.30       3.85
H       3.30       0.28       2.35
H       5.17       2.71      -0.79
H       5.83       1.97      -3.07
H       9.87       1.38      -1.75
H       5.61       4.68       2.64
H       9.23       2.16       0.56
H       5.47       0.64       1.15
O       9.41       0.60      -4.03
O       7.45       1.38      -4.87
O       1.37       0.94       3.76
O       1.64       2.98       4.74
O       6.89       2.93       1.28
