12

O       5.83      11.85       9.35
O       3.55      11.84       9.37
O       5.49      18.06       1.05
C       4.66      13.06       7.77
C       4.60      13.81       6.80
C       4.54      14.61       5.72
C       4.48      15.35       4.74
C       4.42      16.15       3.66
C       4.37      16.88       2.68
O       3.20      18.07       1.08
C       4.68      12.18       8.91
C       4.35      17.74       1.52
