33

H      12.31       5.12       6.91
O      11.98       9.05       7.18
C      15.20       5.68       5.16
H      14.17       3.89       5.78
C      15.18       7.09       5.20
C      14.13       7.77       5.82
H      15.98       7.65       4.72
C      16.26       4.95       4.45
H      14.11       8.86       5.84
C      15.93       3.85       3.65
H      14.88       3.54       3.57
C      16.90       3.15       2.94
H      16.61       2.29       2.33
H      19.64       4.90       3.96
C      18.25       3.53       3.04
H      17.90       6.17       5.18
C      18.59       4.61       3.86
C      17.62       5.33       4.54
H      18.10       2.60       0.47
C      19.27       2.77       2.30
H      19.84       1.28      -0.71
C      19.03       2.35       0.98
H      22.35       1.31       2.59
C      20.00       1.61       0.32
H      20.72       2.69       3.91
C      11.98       7.79       7.12
C      21.40       1.64       2.16
C      13.08       7.06       6.42
C      20.50       2.41       2.88
C      13.11       5.66       6.41
N      21.16       1.24       0.90
O      11.06       7.10       7.70
C      14.15       4.98       5.78
