46

H       3.21      -2.02      16.77
H       4.05      -1.78      18.96
H       2.26      -3.46      17.17
H       2.57      -2.68      19.38
H       4.89      -5.99      17.13
H       4.29      -6.08      19.35
H       2.17      -5.51      20.36
H       2.26      -5.54      15.86
H       6.70      -4.42      15.41
H       6.31      -6.00      18.44
H       7.35      -0.86      17.90
H       5.93      -2.64      21.60
C       4.10      -3.99      23.47
C       4.01      -4.03      12.64
C       4.01      -5.34      17.31
C       3.78      -5.26      18.83
C       3.23      -2.97      17.32
C       3.51      -2.73      18.81
C       4.15      -3.97      22.02
C       4.08      -4.00      14.08
C       4.31      -3.92      16.74
C       2.32      -5.36      19.26
C       2.88      -6.11      16.59
C       6.84      -4.34      16.51
C       6.54      -5.18      19.14
C       4.37      -3.89      19.37
C       5.86      -3.79      18.81
C       5.77      -3.52      17.25
C       4.30      -3.91      20.82
C       4.22      -3.96      15.29
S       6.13      -1.76      16.44
S       6.94      -2.52      19.71
O       3.78      -5.10      24.01
O       4.42      -2.90      24.04
O       3.72      -2.92      12.07
O       1.37      -5.29      18.50
O       2.74      -7.30      16.77
O       4.25      -5.15      12.09
O       7.79      -4.85      17.08
O       7.13      -5.38      20.18
O       6.39      -2.09      15.07
O       5.09      -0.84      16.81
O       7.52      -1.28      17.01
O       8.30      -2.76      19.35
O       6.34      -1.22      19.46
O       6.84      -2.81      21.26
