36

O      -0.46       9.00       1.30
O      -1.64       7.05       1.35
H       2.09       8.41       6.01
H      -1.76       6.48       8.36
O       2.36       7.85      12.88
O       1.13       5.95      13.07
O       0.68       9.95       8.23
O       2.36       5.96       7.75
O      -2.05       8.98       6.64
H       0.36      11.08       6.48
H       2.07      10.65       6.82
H       4.06       5.14       6.97
H       1.23      11.87       7.83
H       3.39       6.47       5.98
H       2.59       4.86       5.97
H      -2.14      10.21       8.34
H      -3.00       8.64       8.49
H      -3.67       9.93       7.44
C       0.97       7.23      11.13
C      -0.95       8.24       6.96
C      -0.08       7.52       5.83
C      -0.92       6.93       7.84
C       0.40       7.41       8.57
C      -0.09       6.22       6.74
C       1.26       6.70       7.43
C      -0.29       7.61       4.44
C       0.68       7.32       9.95
C       1.50       7.00      12.45
C       0.40       8.73       7.67
C      -0.86       7.92       1.88
C       1.24       8.00       6.56
C      -0.46       7.71       3.24
C       1.11      10.94       7.27
C       3.14       5.59       6.59
C      -2.75       9.47       7.81
Br      -0.45       4.46       6.10
