14

C      -0.18       0.23       6.93
C      -1.30       0.96       6.83
H       0.77       0.76       7.03
H      -2.28       0.50       6.67
C      -0.13      -1.22       6.91
H       0.80      -1.70       6.61
C      -1.16      -2.03       7.26
H      -2.10      -1.62       7.64
O      -2.14      -4.13       7.58
C      -1.09      -3.51       7.20
O      -0.01      -4.05       6.78
C      -1.31       2.44       6.92
O      -2.47       2.99       6.96
O      -0.20       3.06       6.98
