16

C       3.82       2.90       5.80
C       4.89       2.51       2.37
S       2.56       3.68       3.65
C       6.04       1.87       2.81
C       4.08       2.89       3.46
S       6.15       1.73       4.54
C       4.63       2.53       4.71
C       2.66       3.54       5.38
C       1.54       4.08       6.17
O       0.60       4.62       5.50
O       1.61       3.96       7.44
O       7.02       1.46       0.72
O       8.09       0.77       2.62
Br       4.35       2.54       7.57
C       7.13       1.33       1.99
H       4.69       2.67       1.32
