28

N       5.65       9.00      14.92
H       8.36       9.62      15.06
H       8.58       8.97      16.70
H       7.51      10.36      16.43
H       6.18       8.25      16.77
H       7.01       7.48      15.42
H       4.55       9.64      16.56
H       4.08       9.94      10.76
O       1.60      11.55      15.02
O       2.62      10.72      16.88
O       2.82      10.89      12.58
O       9.07       7.18      11.52
O       7.79       7.13       9.63
H       5.96       8.66       9.65
H       7.65       7.81      13.49
C       7.85       9.41      16.01
C       6.68       8.45      15.82
C       4.59       9.64      15.47
C       3.59      10.28      14.78
C       2.52      10.90      15.61
C       3.63      10.31      13.32
C       4.77       9.55      12.74
C       4.86       9.45      11.34
C       5.89       8.76      10.73
C       6.90       8.17      11.53
C       6.85       8.27      12.92
C       5.77       8.93      13.53
C       8.01       7.44      10.85
