26

Cl      13.47       7.72       6.82
Cl      15.40       1.91       6.82
O       8.72       5.96       6.76
H      10.95       6.97       6.78
H      17.92       2.66       6.78
O      20.15       3.66       6.76
H      17.87       6.94       6.78
H      11.00       2.68       6.78
H      13.42       2.73       6.82
H      15.46       6.90       6.82
O      20.15       5.94       6.75
O       8.73       3.69       6.75
C       9.31       4.83       6.75
C      19.57       4.80       6.75
C      10.80       4.83       6.77
C      18.08       4.80       6.77
C      11.50       6.03       6.78
C      12.90       6.06       6.80
C      17.37       3.60       6.78
C      15.98       3.56       6.80
C      17.35       5.99       6.79
C      15.97       5.94       6.81
C      11.52       3.64       6.79
C      12.91       3.68       6.81
C      13.69       4.86       6.81
C      15.19       4.76       6.81
