60

C      10.08       3.40      14.29
C       7.22      -3.49      14.25
C       5.37       3.76      14.44
C      11.90      -3.97      14.31
C       6.58       4.50      16.41
C      10.84      -4.61      16.38
C       6.18       2.63      14.38
C      11.10      -2.83      14.25
C       7.41       3.39      16.31
C      10.01      -3.49      16.30
H       6.22      -0.02      15.27
H      11.15      -0.14      15.17
H      12.86       3.73      16.98
H       4.71      -4.01      17.16
H      11.45       1.66      16.87
H       6.10      -1.94      17.05
H      10.80       5.30      13.56
H       6.44      -5.36      13.48
H       9.29       3.31      13.54
O      13.35       6.13      16.44
O       4.52       6.53      16.61
H       7.94      -3.36      13.44
O      12.88       6.55      14.26
H       4.58       3.92      13.71
H       6.72       5.22      17.21
O       4.03       6.16      14.42
H       6.02       1.88      13.59
O       4.02      -6.28      16.47
H       8.21       3.25      17.05
O       4.51      -6.70      14.29
H      11.21      -2.13      13.42
H      12.64      -4.18      13.53
H      10.75      -5.29      17.24
H       9.28      -3.31      17.08
O      13.35      -6.31      14.37
O      12.84      -6.66      16.55
C      11.90       4.65      15.29
C       5.49      -4.81      15.33
C      12.77       5.86      15.34
C       4.61      -6.01      15.37
C      10.26       2.36      15.22
C       7.12      -2.51      15.25
C       7.21       2.42      15.31
C      10.15      -2.58      15.24
C       8.01       1.17      15.25
C       9.36      -1.32      15.20
C       4.64       5.89      15.51
C      12.72      -6.03      15.45
C       5.56       4.70      15.46
C      11.79      -4.86      15.39
C       7.31      -0.04      15.25
C      10.06      -0.11      15.19
C       9.42       1.14      15.21
C       7.95      -1.29      15.23
C      12.09       3.62      16.22
C       5.40      -3.84      16.34
C      11.30       2.48      16.16
C       6.18      -2.70      16.28
C      10.91       4.51      14.30
C       6.40      -4.61      14.27
