22

O       1.44      13.18       2.09
O       1.96      18.38       2.02
O      -1.85      13.55      -1.90
H      -1.72      18.76      -1.07
H       1.43      13.00       1.13
H       0.86      18.29      -0.36
H      -0.80      13.68       0.48
C       2.12      17.16       1.70
C      -1.98      14.79      -1.64
C       0.49      17.28      -0.18
C      -0.39      14.68       0.28
C      -0.47      16.72      -1.02
C       0.58      15.23       1.12
C      -0.92      15.41      -0.79
C       1.03      16.54       0.88
C      -0.91      17.48      -2.25
C       1.04      14.46       2.32
O       3.12      16.41       1.96
O      -2.92      15.56      -2.02
O      -0.65      17.12      -3.38
O      -1.54      18.67      -2.02
O       1.04      14.92       3.45
