24

C      14.45       2.83       2.68
C      14.10       2.61       5.48
H      17.06       4.58       3.58
H      16.17       4.61       2.10
H      11.37       1.07       4.58
H      11.74       1.87       6.06
H      14.08       2.49       0.71
H      15.70       2.92       1.09
H      14.57       2.79       7.45
H      13.47       1.53       7.07
N      16.45       4.08       2.93
N      12.08       1.39       5.23
N      14.72       3.00       1.32
N      13.83       2.45       6.84
C      16.21       3.93       5.88
O      15.99       3.91       7.16
O      17.27       4.48       5.39
C      12.33       1.53       2.28
O      11.36       0.82       2.77
O      12.45       1.71       1.00
C      15.23       3.32       4.97
C      13.31       2.14       3.19
C      15.38       3.43       3.55
C      13.14       2.05       4.61
