16

O       6.99       1.45       0.72
O       8.07       0.82       2.64
C       3.72       2.91       5.76
C       1.45       4.05       6.15
S       2.45       3.64       3.60
C       2.54       3.52       5.34
C       3.98       2.88       3.45
C       4.83       2.50       2.38
C       4.55       2.53       4.69
S       6.08       1.75       4.54
O       0.45       4.54       5.50
O       1.58       3.99       7.42
C       6.00       1.88       2.80
C       7.10       1.35       1.99
F       4.05       2.68       7.04
F       4.50       2.73       1.10
