29

C      11.12       8.92      12.24
C       9.42       8.83      10.53
C      14.79       7.60       7.04
C      14.16       8.27       9.31
H       9.00       9.02      12.65
C      11.75       8.57       9.89
C      12.12       8.74      11.26
C      13.50       8.70      11.62
C      14.48       8.50      10.69
H      13.77       8.84      12.67
H      10.06       8.62       8.52
H      15.57       7.34       6.33
H      15.52       8.49      11.00
O       7.18       8.27      11.00
O      17.39       7.26       7.99
O       7.64       9.30       9.02
H      11.42       9.04      13.28
O      17.00       9.02       9.38
O      13.04       7.22       5.40
H      11.42       7.90       7.25
H      13.83       6.99       4.88
C      10.39       8.68       9.55
C       9.78       8.92      11.89
C      15.15       7.97       8.33
C      13.44       7.58       6.67
C      12.45       7.93       7.58
C      12.79       8.27       8.91
C       7.98       8.80      10.16
C      16.62       8.08       8.60
