17

H       5.50       7.05       6.52
S       7.45       7.01       8.65
C       6.48       7.26       6.09
H       9.74       7.49       7.00
C       7.62       7.25       6.91
O       8.75       7.38       9.23
C       8.87       7.51       6.36
O       6.36       7.91       9.08
C       9.02       7.84       5.01
O       7.12       5.58       8.86
C       7.87       7.88       4.17
O      11.33       8.44       5.35
H       5.73       7.59       4.10
C       6.61       7.56       4.75
O      10.60       8.42       3.28
O       7.85       8.21       2.90
C      10.37       8.24       4.56
