22

N      13.30       1.97      10.14
N       9.71       7.65      17.45
F      14.44       5.21      10.51
F       7.84       5.17      15.92
H       8.64       5.05      13.46
H      10.02       3.52      12.12
C      13.70       4.09      10.48
F      11.12       1.79      10.84
C       8.70       6.15      16.21
F      11.56       6.52      13.99
F      11.30       8.45      15.99
F      11.97       6.13      11.50
C      12.21       2.54      10.64
C       9.70       6.68      15.38
C      10.28       7.63      16.24
C      12.36       3.92      10.88
C       9.68       5.32      13.25
C      10.38       4.54      12.26
C      10.24       6.18      14.13
C      11.49       4.85      11.56
N      14.26       2.97      10.05
N       8.70       6.70      17.43
