16

C       3.43      10.56       2.37
H       0.73       8.58       0.39
C       1.13       9.81       2.12
O       2.61      12.02       4.65
H       3.08       8.69      -0.44
C       1.49       9.14       0.95
C       5.21       9.90       0.73
C       2.10      10.54       2.83
C       3.79       9.89       1.20
O       0.50      11.35       4.41
C       2.80       9.19       0.48
C       1.74      11.33       4.03
H       4.18      11.12       2.92
O       6.07      10.44       1.50
H       0.11       9.79       2.49
O       5.46       9.36      -0.39
