24

H       8.51      12.19       9.08
H       8.61      12.99      13.31
C       9.06      12.32      10.01
C       9.11      12.75      12.37
H      11.03      12.77      13.30
H      10.95      11.98       9.07
C      10.45      12.21      10.01
C      10.49      12.63      12.37
H      13.31      12.79      13.29
H      13.30      12.54       8.97
C      11.21      12.42      11.17
C      13.53      12.76      12.23
C      13.53      12.63      10.03
H       6.32      13.38      13.31
C       8.36      12.67      11.18
H       6.46      13.49       8.98
C      12.66      12.55      11.14
C       6.17      13.52      12.24
C       6.23      13.57      10.03
N      14.79      12.95      11.80
N      14.79      12.87      10.43
N       5.07      14.17      11.80
N       5.11      14.20      10.44
C       6.97      13.13      11.15
