16

C      16.36       4.07      19.47
C      18.20       5.24      21.21
C      16.16       5.39      19.92
C      18.38       3.91      20.79
C      17.09       5.97      20.78
C      17.47       3.33      19.92
H      15.29       5.94      19.58
H      19.24       3.35      21.15
H      16.96       6.99      21.13
H      17.59       2.31      19.57
O      14.38       4.17      18.19
O      15.64       2.27      18.11
C      15.38       3.45      18.52
C      19.20       5.87      22.12
O      20.18       5.14      22.50
O      19.01       7.09      22.45
