18

C       5.21       8.68      14.23
H       6.01       9.81      11.87
H       4.11      12.19      12.33
C       4.70       9.82      13.58
C       5.21      10.39      12.35
C       4.92      11.62      11.87
H       3.18      11.25      14.47
N       4.70       8.60      15.48
N       3.84       9.64      15.66
C       5.42      13.59      10.33
H       4.54      14.22      10.47
C       3.82      10.37      14.53
H       7.61      11.17      10.53
C       6.98      12.03      10.36
N       6.44      14.01       9.56
C       5.70      12.33      10.88
H       5.93       7.95      13.87
N       7.41      13.04       9.58
