19

H      23.06       5.81      11.31
H      20.63       9.34      11.57
H      24.73       6.86      12.88
C      22.09      10.73      13.34
H      22.57      11.49      11.64
O      24.58      10.55      14.16
C      24.65       9.28      13.99
O      25.53       8.50      14.48
C      20.77       6.91      10.39
O      21.00       5.71      10.04
O      19.80       7.65      10.01
C      23.61       8.68      13.10
C      21.76       7.53      11.34
C      22.45       9.39      12.74
C      22.91       6.81      11.72
C      21.53       8.81      11.86
C      23.82       7.39      12.59
O      22.18      11.79      12.48
O      21.63      10.87      14.45
