13

C       4.09      19.42       5.93
S       5.29      20.64       5.72
O       3.39      17.20       5.77
C       4.38      17.99       5.69
H       2.07      22.02       6.63
C       2.86      19.97       6.28
O       5.58      17.67       5.41
O       5.71      23.61       5.62
H       1.98      19.36       6.44
C       2.91      21.37       6.38
C       4.53      23.32       6.00
O       3.61      24.15       6.28
C       4.17      21.89       6.09
