27

C       2.32       7.33       7.56
C       0.96       6.72       7.71
C       0.34       6.14       6.60
C      -0.91       5.53       6.74
C      -1.52       5.50       7.99
C      -0.92       6.10       9.11
C       0.32       6.70       8.96
C      -3.88       5.61       8.17
C      -3.86       7.00       7.96
C      -5.06       7.70       8.01
C      -6.27       7.05       8.27
O       2.88       7.19       6.43
C      -6.27       5.66       8.46
C      -5.09       4.94       8.42
C      -7.52       7.86       8.38
H      -2.92       7.51       7.75
H      -5.06       8.78       7.86
H       0.85       6.17       5.64
H      -1.42       5.07       5.89
H      -7.22       5.16       8.64
O       2.82       7.93       8.58
H      -1.43       6.08      10.07
H       0.81       7.16       9.82
O      -2.74       4.84       8.12
O      -7.45       9.12       8.42
O      -8.65       7.24       8.45
H      -5.07       3.86       8.56
