16

O       1.12       5.83      13.89
H       6.16       8.96      12.03
H       1.81       5.24      13.52
C       4.53       8.06      11.52
C       1.45       7.11      13.70
O       5.02       7.50      10.52
O       5.17       8.90      12.31
C       3.13       7.76      11.95
O       3.74       7.96      15.32
C       3.90       7.25      14.29
C       2.85       7.39      13.22
O       4.79       6.39      14.04
O       1.08       7.05      11.03
O       2.21       8.78      10.05
C       2.05       7.87      10.91
O       0.70       8.02      14.01
