20

H       4.12      10.00       7.69
H       4.14      12.49       7.74
H       8.93      12.53       5.39
H       9.46      12.47       7.09
H       8.89      10.02       5.30
H       9.45       9.94       7.00
C       6.14       8.31       7.02
C       7.32      10.54       6.77
C       6.18       9.80       7.07
C       5.03      10.55       7.43
C       5.05      11.94       7.46
C       6.21      12.68       7.14
C       7.33      11.94       6.80
C       8.78      12.03       6.36
C       8.76      10.45       6.31
C       6.21      14.17       7.13
O       7.27       7.71       6.92
O       5.00       7.74       7.09
O       7.35      14.74       7.01
O       5.09      14.77       7.23
