26

H       2.69       1.14       7.28
H       6.48      -0.56       9.55
H       2.66      -3.20       7.88
H       2.62      -0.77       7.61
H       6.52       3.79       8.95
H       6.56       1.36       9.23
C       4.59      -4.77       8.76
C       4.59       5.35       8.08
C       4.58       3.86       8.04
C       4.59      -3.28       8.80
C       3.52       3.08       7.55
C       3.54       1.69       7.69
C       5.66      -2.50       9.28
C       5.64      -1.11       9.14
C       3.50      -2.60       8.23
C       3.49      -1.23       8.08
C       5.68       3.19       8.60
C       5.69       1.81       8.75
C       4.60       1.03       8.32
C       4.57      -0.44       8.51
Cl       2.17       3.78       6.73
Cl       7.01      -3.19      10.10
O       3.46      -5.35       8.88
O       3.48       5.93       8.31
O       5.71       5.94       7.95
O       5.69      -5.35       8.52
