32

H       8.95       7.11      12.24
H       8.82       7.33      14.74
H      12.93       6.07      15.00
H       7.79       6.34      18.45
H      11.91       7.55      18.55
H      11.75       7.79      21.05
H      13.41       5.72      11.41
H      14.12       5.60      13.01
H       7.24       6.71      22.02
H       6.56       6.22      20.49
C       9.73       7.29      22.63
C      10.90       6.21      10.75
C      10.96       6.40      12.20
C       9.80       6.85      12.86
C       9.72       6.98      14.23
C      10.87       6.66      15.00
C      12.05       6.28      14.37
C      12.14       6.12      12.97
C       8.66       6.63      19.04
C       9.85       6.89      18.38
C      11.00       7.31      19.09
C      10.90       7.43      20.46
C       9.71       7.15      21.17
C       8.55       6.75      20.45
N      10.93       6.74      16.41
N       9.80       6.76      16.97
N      13.30       5.68      12.42
N       7.38       6.43      21.06
O      10.86       7.26      23.23
O      12.01       5.96      10.13
O       9.76       6.27      10.17
O       8.60       7.44      23.23
