29

N       2.55       5.93       6.47
N       7.22      -2.77       7.89
H       4.46       6.67       6.18
H       5.53       5.03       7.76
H       1.61       3.36       8.44
H       0.71       5.06       6.84
H       3.54       2.78       9.97
H       5.12       3.50       9.69
H       5.45       2.03       7.67
H       3.86       1.32       7.93
H       4.58       0.48      10.18
H       6.10       1.32      10.05
H       7.34      -0.69      10.54
H       8.38      -2.75       9.61
H       5.94      -2.62       6.23
H       4.83      -0.58       7.02
C       3.87       5.91       6.72
C       4.45       4.99       7.59
C       3.66       4.05       8.24
C       2.28       4.07       7.96
C       1.78       5.02       7.08
C       4.26       3.05       9.18
C       4.72       1.77       8.45
C       5.35       0.79       9.44
C       5.98      -0.44       8.87
C       7.00      -1.09       9.58
C       7.59      -2.24       9.07
C       6.24      -2.17       7.18
C       5.61      -1.01       7.64
