26

H       1.94       8.40      14.42
H       2.55       4.22      16.03
H       4.13       4.77      11.85
H       2.63       8.26      18.89
F       1.97       8.75      11.91
H       4.07       4.63      14.34
F       2.17       3.77      18.48
H       3.02       8.50      16.44
C       3.13       6.65      10.24
C       2.23       6.08      20.34
C       2.46       7.60      13.89
C       2.60       5.13      16.63
C       2.55       7.67      12.51
C       2.40       5.02      18.00
C       3.13       6.65      11.74
C       2.39       6.14      18.85
C       3.67       5.56      12.44
C       2.61       7.38      18.24
C       3.62       5.48      13.83
C       2.83       7.51      16.87
C       2.99       6.49      14.58
C       2.82       6.38      16.04
O       3.12       7.77       9.65
O       2.27       4.94      20.91
O       3.14       5.50       9.68
O       2.10       7.21      20.93
