28

C       4.13      10.53       1.75
H       6.74      12.31       2.63
H       2.77      16.59       7.16
C       1.25      13.72       7.64
C       4.59      11.66       2.46
H       4.86      16.32       5.08
H       6.56      13.81       4.57
C       1.97      14.52       6.73
C       4.42      13.67       3.98
H       5.37      15.14       6.32
C       3.76      14.39       4.98
H       6.08      15.01       3.33
H       3.13      10.15       1.63
C       3.85      12.57       3.32
C       2.48      14.06       5.44
H       0.87      12.72       7.50
N       6.33      10.58       1.49
H       0.81      12.80       4.91
N       1.73      15.59       8.71
N       5.18       9.91       1.18
H       1.93      11.57       3.14
C       5.99      11.63       2.26
C       1.84      13.06       4.67
N       1.14      14.36       8.82
C       2.49      12.36       3.66
C       2.24      15.69       7.46
C       4.97      15.25       5.30
C       5.73      14.42       4.18
