12

O       6.21       4.03       7.24
O       8.40      -2.83      15.00
C       7.25      -1.49      13.53
C       7.36       2.69       8.72
O       8.49       3.91       7.12
C       7.34       1.88       9.64
C       7.29       0.19      11.59
C       7.32       1.00      10.66
C       7.27      -0.69      12.60
O       6.12      -2.72      15.12
C       7.36       3.61       7.62
C       7.25      -2.42      14.63
