25

N      12.65       3.93       3.54
O      15.19       0.73       1.84
O      16.60       2.48       2.22
O      11.39       5.54       5.59
O      10.83       3.48       6.38
H      13.59       3.53       1.74
H      13.39       2.55       6.53
H      15.88       2.83       6.93
H      17.57       1.50       8.15
H      18.18      -0.78       7.34
H      17.07      -1.71       5.31
H      15.39      -0.38       4.09
C      15.53       1.82       2.40
C      14.53       2.42       3.34
C      13.58       3.31       2.81
C      12.60       3.63       4.85
C      13.49       2.76       5.47
C      14.52       2.16       4.73
C      15.53       1.33       5.42
C      16.14       1.83       6.58
C      17.09       1.08       7.26
C      17.44      -0.19       6.80
C      16.83      -0.71       5.66
C      15.88       0.05       4.97
C      11.52       4.28       5.66
