20

H       2.86       8.77      11.85
H       2.90      10.07      13.97
H      -1.30       7.30      15.79
H      -2.21       7.26      12.84
H      -1.30       5.96      13.66
H      -2.18       8.62      14.96
C       0.96       7.04      10.99
C      -0.06       7.73      13.19
C       0.97       7.81      12.25
C       2.04       8.67      12.57
C       2.07       9.40      13.76
C       1.02       9.31      14.71
C      -0.04       8.47      14.38
C      -1.36       7.89      14.86
C      -1.37       7.05      13.53
C       1.08      10.06      15.99
O      -0.16       6.56      10.62
O       2.06       6.93      10.36
O       2.23      10.48      16.37
O      -0.02      10.21      16.62
