24

H       3.02       6.93       9.70
H       3.04       8.25       8.49
H       3.62       4.39       5.20
H       0.48       5.79      10.04
H      -0.26       7.27      11.73
H      -0.12       8.63      10.60
H       1.36       7.88      11.25
H       0.57       8.09       8.22
H       1.98       3.56       4.20
H       0.04       2.91       3.30
H      -0.45       4.62       3.54
H      -0.88       3.38       4.75
C       1.27       6.13       7.51
C       1.52       4.73       5.73
C       2.94       4.89       5.89
C       2.63       6.26       7.63
C       2.61       7.27       8.74
C       1.00       7.16       8.62
C       0.33       7.67      10.89
C      -0.10       3.70       4.04
N       0.64       5.38       6.57
N       3.51       5.65       6.82
N       0.25       6.75       9.77
N       1.17       3.90       4.71
