28

O      -7.43       9.70      12.42
O      -6.34       9.01      14.30
H      -3.50       5.92      11.76
H      -2.86       9.17       8.28
H      -5.23       6.93      13.25
O      -2.65       6.95       8.27
O      -1.61       6.18      10.14
H      -2.85      11.03       6.93
H      -4.26      12.12       7.09
H      -2.72      12.57       7.82
H      -6.50      12.10      12.06
H      -5.36      11.30      13.17
H      -4.89      12.77      12.31
C      -3.45       9.68       9.05
C      -3.77      11.01       8.87
C      -4.46      11.66       9.92
C      -4.89      11.03      11.08
C      -4.70       9.61      11.16
C      -2.50       6.86       9.54
C      -3.87       8.95      10.19
C      -3.45       7.60      10.43
C      -3.87       6.92      11.57
C      -4.81       7.51      12.43
C      -5.25       8.80      12.21
C      -6.42       9.23      13.04
C      -3.37      11.72       7.61
C      -5.45      11.83      12.22
Br      -4.76      13.55       9.74
