20

C      14.81       8.03       1.50
C      15.46       8.59       0.47
H      11.37       7.53       3.30
C      16.06       9.13      -0.47
H      15.18       6.38       5.02
C      16.71       9.70      -1.49
C      17.31      10.19      -2.45
H      20.14      10.34      -3.43
H      16.20      11.46      -4.86
N      11.97       6.79       5.19
N      13.17       6.41       5.73
C      12.18       7.20       3.93
C      14.14       6.60       4.80
N      19.40      11.16      -5.24
N      18.16      11.51      -5.69
C      13.56       7.12       3.62
C      19.27      10.67      -4.00
C      17.26      11.25      -4.73
C      17.91      10.69      -3.61
C      14.22       7.55       2.47
