66

H       5.59      15.08       3.12
H       7.76      14.07       5.37
H       4.46      17.46       5.47
H       5.92      18.22       6.05
H       4.58      16.12       7.38
H       4.27      15.97       3.82
H       4.08      14.57       5.59
H       6.25      16.59       7.69
H      10.26      18.38       7.23
H      10.08      19.54       5.89
H       9.28      19.84       7.44
H       7.58      19.06       5.89
H       7.85      17.80       7.10
H       9.57      16.85       5.29
H       8.73      17.90       4.17
H       8.30      14.63       0.77
H       9.73      14.02       1.62
H       8.44      12.90       1.17
H       8.27      13.40       3.59
H       6.87      14.00       2.72
H       8.02      16.31       2.64
H       9.33      15.62       3.55
H      10.26      14.62       9.17
H       8.63      14.07       9.65
H       9.92      12.88       9.35
H       8.31      12.97       7.45
H       9.92      13.46       6.93
H       9.35      15.77       6.84
H       8.00      15.59       7.92
H       5.52      11.03       2.75
H       4.48      10.42       4.05
H       3.78      10.83       2.47
H       3.27      12.67       4.08
H       4.35      13.24       2.82
H       6.31      12.84       4.41
H       5.15      12.38       5.65
C       5.98      11.91       9.18
C       5.25      15.53       4.05
C       7.63      16.14       4.76
C       7.53      15.02       5.87
C       5.92      13.02       8.27
C       6.18      16.69       4.48
C       5.10      14.48       5.19
C       6.05      14.88       6.37
C       5.57      16.25       6.91
C       5.50      17.26       5.75
C       5.96      13.89       7.42
C       6.20      17.72       3.46
C       6.22      18.59       2.60
C       6.24      19.59       1.57
C       8.60      17.32       5.10
C       8.31      18.31       6.24
C       9.55      19.06       6.72
C       8.24      15.57       3.43
C       7.94      14.17       2.87
C       8.64      13.92       1.54
C       8.50      15.11       7.07
C       9.06      13.76       7.56
C       9.50      13.84       9.01
C       5.28      13.02       4.76
C       4.30      12.57       3.68
C       4.53      11.14       3.21
O       4.86      11.39       9.52
O       7.15      11.54       9.53
O       5.10      20.04       1.19
O       7.38      19.94       1.13
