30

H       6.59       9.34       6.41
H       6.73      11.80       6.33
H       2.58       9.46       7.57
H       7.43      18.74       6.49
H       3.41      18.85       7.62
H       3.25      16.39       7.61
H       1.02      13.37       5.97
H       8.98      14.82       8.01
C       5.71       9.94       6.64
C       5.79      11.32       6.60
C       4.67      12.11       6.94
C       3.49      11.40       7.27
C       3.48      10.01       7.30
C       4.83      13.51       6.96
C       5.15      14.68       6.97
C       5.31      16.09       7.02
C       6.51      16.79       6.72
C       6.52      18.19       6.74
C       4.29      18.25       7.38
C       4.20      16.87       7.37
S       1.94      12.22       7.57
S       8.05      15.98       6.41
N       4.58       9.29       7.00
N       5.42      18.90       7.05
O       1.48      12.46       6.09
O       1.05      11.31       8.24
O       2.20      13.51       8.20
O       8.52      15.73       7.89
O       7.79      14.68       5.78
O       8.93      16.89       5.74
