14

C       7.56      13.10       7.57
Br       7.37      13.85       5.84
Br       5.86      16.09       8.92
Br       7.85      13.19      10.40
Br      10.38      15.43       8.11
C       7.64      13.91       8.64
C       8.64      16.17       8.33
C       7.60      15.37       8.58
O       8.54      11.09       6.85
C       7.63      11.60       7.57
C       8.58      17.66       8.16
O       7.75      18.07       7.29
O       9.36      18.36       8.88
O       6.77      11.01       8.29
