36

H       7.30       2.54      12.47
H      12.83      11.34       3.66
H       6.66       4.95      12.55
H      13.47       8.93       3.58
H       7.63       6.54      10.94
H      12.50       7.34       5.20
H       9.86       3.35       9.10
H      10.27      10.53       7.04
H       8.92       1.75      10.75
H      11.21      12.13       5.38
H      11.40       5.24       9.25
H       8.73       8.64       6.88
C      11.45       6.87       7.88
C       8.68       7.01       8.26
C      10.72       7.87       7.20
C       9.41       6.01       8.94
C       7.18       7.07       8.27
C      12.95       6.81       7.86
C       7.36       4.59      11.80
C      12.77       9.29       4.33
C       7.90       5.49      10.88
C      12.23       8.39       5.25
C       8.81       5.06       9.90
C      11.32       8.82       6.24
C       9.16       3.70       9.86
C      10.97      10.18       6.27
C       8.62       2.80      10.78
C      11.51      11.08       5.35
C       7.72       3.24      11.75
C      12.41      10.64       4.38
C      10.80       5.97       8.72
C       9.33       7.91       7.42
O       6.65       8.22       8.32
O      13.48       5.66       7.82
O       6.57       5.95       8.18
O      13.56       7.93       7.96
