28

H       0.98      14.09       3.68
H       0.98      10.52      10.54
H       3.29      14.13      10.52
H       3.26      14.13       8.02
H       3.30      10.48       3.69
H       3.26      10.48       6.19
O       3.02      11.63       1.44
O       1.14      12.90       1.49
O       3.02      12.98      12.77
O       1.13      11.72      12.73
O       0.96      14.39       6.33
O       0.96      10.23       7.88
H       0.42      14.90       5.71
H       0.42       9.71       8.51
C       2.09      12.27       2.06
C       2.09      12.34      12.16
C       2.13      12.28       3.54
C       2.13      12.33      10.67
C       1.51      13.32       4.24
C       1.54      13.35       5.63
C       1.51      11.29       9.97
C       1.54      11.26       8.58
C       2.78      13.35       9.97
C       2.76      13.34       8.58
C       2.78      11.26       4.25
C       2.76      11.27       5.64
C       2.16      12.31       6.37
C       2.16      12.30       7.85
