36

H       4.80       7.56       5.56
H       5.39       6.18      -1.22
H       8.53       9.12      -1.24
H       5.39       6.20       1.24
H       9.08       7.65      -5.58
H       4.80       7.59      -5.55
H       9.07       7.92       5.58
H       4.80       7.54       3.07
H       9.11       7.70      -3.09
H       4.80       7.60      -3.06
H       9.10       7.84       3.09
H       8.53       9.14       1.23
C       6.93       7.58      -7.22
C       6.92       7.79       7.22
C       5.73       7.63       5.01
C       8.15       7.64      -5.01
C       5.74       7.59      -5.00
C       8.14       7.84       5.02
C       5.74       7.60       3.62
C       8.16       7.68      -3.62
C       5.74       7.60      -3.61
C       8.15       7.80       3.63
C       6.95       7.69       2.90
C       6.95       7.64      -2.89
C       6.93       7.75       5.72
C       6.94       7.60      -5.72
C       7.85       8.47       0.69
C       6.06       6.85      -0.69
C       7.85       8.46      -0.70
C       6.06       6.86       0.70
C       6.96       7.65      -1.42
C       6.96       7.67       1.42
O       8.02       7.27      -7.80
O       5.82       7.49       7.80
O       8.00       8.13       7.81
O       5.83       7.86      -7.80
