16

O      19.01      18.02      15.28
F      16.82      16.65      14.91
C      15.34      15.73      10.40
H      17.58      17.13       9.77
H      15.28      15.69      13.11
H      19.22      18.15      11.37
O      15.56      15.87       9.15
O      20.16      18.75      13.46
O      14.36      15.11      10.93
C      19.20      18.14      14.03
C      18.19      17.51      13.12
C      16.33      16.35      11.34
C      17.06      16.80      13.59
C      17.45      17.04      10.84
C      16.14      16.23      12.72
C      18.35      17.61      11.73
