26

C      10.47       3.36      10.11
C       7.72       3.36      16.64
C       9.93       2.19      10.66
C       8.26       2.19      16.09
C       9.39       2.21      11.94
C       8.81       2.21      14.82
C       9.38       3.39      12.70
C       8.81       3.39      14.05
C       9.93       4.56      12.14
C       8.25       4.56      14.61
C      10.46       4.54      10.85
C       7.73       4.55      15.90
O      11.27       2.17       8.23
O       6.92       2.17      18.52
O      11.40       4.40       8.17
O       6.78       4.40      18.58
H       9.96       1.27      10.07
H       8.23       1.28      16.68
H       8.93       1.31      12.34
H       9.26       1.31      14.41
H       9.98       5.47      12.73
H       8.21       5.47      14.02
H      10.88       5.45      10.41
H       7.31       5.45      16.34
C      11.07       3.29       8.76
C       7.12       3.29      17.99
