12

O      11.10       8.98       1.39
C      11.44       7.97       7.18
C      11.60       7.87      11.16
C      11.58       7.96       1.99
O      10.90       8.75      11.76
O      12.12       6.83      11.69
C      11.60       8.01       8.51
C      11.28       7.83       3.39
C      11.28       7.86       4.62
C      11.32       7.92       5.96
C      11.73       8.02       9.73
O      12.36       7.09       1.49
