30

C       0.63       0.79      10.41
C      -2.78      -2.95      16.56
H       3.46       1.16       9.40
H      -1.50      -5.07      18.16
H       0.58      -2.44      12.03
H      -0.50      -3.54      13.98
H      -3.36      -0.32      14.22
H      -2.28       0.79      12.27
I      -1.02       3.85      10.17
N       3.01       3.22       9.17
C       2.71       1.94       9.46
N       1.90       3.99       9.34
C       0.90       3.19       9.74
C       1.35       1.85       9.84
N      -2.74      -4.53      19.81
N      -3.71      -3.63      20.02
C      -2.29      -4.43      18.54
N      -4.91      -1.98      18.82
C      -3.89      -2.95      18.86
O      -5.10      -1.32      17.79
O      -5.61      -1.82      19.89
C      -2.99      -3.41      17.86
C      -0.89      -2.60      13.59
C      -1.99      -1.99      14.25
C      -2.51      -0.78      13.73
C      -1.90      -0.17      12.64
C      -0.75      -0.73      12.04
C      -0.29      -1.98      12.51
C      -2.47      -2.53      15.45
C      -0.04       0.02      11.08
