28

N       8.24       4.13       2.54
H       9.25       2.97       9.22
H       7.91       3.65       7.18
N       9.32       3.69       1.80
H      11.45       2.28      10.42
N      14.60       1.98       9.82
H       7.66       3.93       4.56
H      11.04       2.55       2.23
N      13.55       2.27      10.64
H      11.51       0.94       4.17
F      10.51       4.53       9.01
F       9.15       5.20       6.79
C       9.56       2.90       3.90
C       9.88       2.88       6.39
C      10.17       2.38       5.11
F      14.91       1.37       7.61
C      11.22       1.43       5.09
F      12.94       0.20       6.10
C      11.95       1.12       6.24
C      11.76       1.72       7.51
C      10.64       2.56       7.51
C       9.83       3.46       8.42
C      12.41       2.09       9.95
C       9.00       3.85       7.14
C      12.68       1.68       8.63
C       8.39       3.67       3.79
C      10.10       2.96       2.60
C      14.09       1.63       8.63
