34

O       9.91      10.07      11.57
O       7.10       5.95      24.58
O       9.36       6.03      24.71
C       8.75       9.82      12.03
C       8.63       9.43      13.47
C       7.37       9.13      14.01
C       9.78       9.32      14.27
C       9.66       8.91      15.59
C       7.22       8.69      15.32
C       5.87       8.36      15.88
C       8.39       8.57      16.12
C       8.31       8.09      17.44
H       6.50       9.23      13.36
C       8.30       7.67      18.59
H      10.75       9.57      13.85
C       8.31       7.23      19.93
H      10.53       8.84      16.24
C       7.20       6.51      20.45
H       5.80       7.30      16.17
C       6.02       6.17      19.58
H       5.08       8.57      15.16
C       9.43       7.51      20.75
H       5.67       8.94      16.80
C       9.43       7.12      22.09
C       7.23       6.14      21.79
H       5.51       7.09      19.25
H       5.31       5.54      20.12
C       8.32       6.45      22.62
C       8.26       6.12      24.07
H       6.33       5.65      18.67
H      10.27       8.05      20.33
H      10.27       7.35      22.73
H       6.39       5.59      22.20
O       7.66       9.85      11.36
