17

O       0.70       8.79      12.30
O      -0.67       9.82      10.81
C      -1.72       9.56      14.00
C      -2.84       9.90      14.66
H      -0.76       9.85      14.44
H      -3.84       9.70      14.26
C      -1.67       8.86      12.73
C      -2.63       8.01      12.30
H       0.18       9.96      10.34
H      -3.53       7.85      12.90
C      -2.80      10.60      15.96
C      -0.42       9.11      11.93
O      -3.72       6.94      10.54
O      -1.44       7.01      10.52
C      -2.58       7.27      11.02
O      -3.94      10.87      16.48
O      -1.66      10.87      16.47
