16

C      18.51       8.27      25.71
C      18.51       9.50      29.11
H      18.51       9.27      30.17
C      18.51      10.80      28.63
C      18.51       8.58      28.05
C      18.51       9.19      26.78
C      18.51       6.95      26.17
O      18.50      13.14      28.76
C      18.51       5.69      25.42
O      18.50      11.91      30.69
O      18.53       5.77      24.15
O      18.50       4.62      26.12
S      18.51       6.86      27.91
S      18.51      10.91      26.89
C      18.50      12.04      29.42
Br      18.52       8.85      23.93
