22

O      -2.98      10.91       1.28
O      -4.47       9.20       1.37
O      -6.86      11.95       7.40
H      -5.65      10.14       6.11
H      -7.34      14.39       4.55
H      -7.17      15.64       2.44
H      -5.96      14.66       0.49
H      -4.81      12.48       0.72
H      -4.33       9.25       4.19
C      -7.19      12.27       6.19
C      -4.01      10.30       1.77
C      -6.77      13.97       3.73
C      -6.68      14.67       2.54
C      -5.98      14.12       1.44
C      -5.34      12.91       1.57
C      -5.39      12.19       2.79
C      -6.16      12.70       3.88
C      -6.26      11.92       5.08
C      -5.56      10.72       5.19
C      -4.82      10.22       4.11
C      -4.73      10.93       2.93
O      -8.28      12.84       5.88
