24

C       3.66      -0.59      13.64
C       3.66      -1.92      13.20
H      -1.32       1.55      19.41
C       4.67      -2.35      12.35
H      -3.00      -0.35      19.17
C       5.61      -0.24      12.28
H      -0.79      -1.89      16.00
C       4.65       0.27      13.13
H       2.90      -2.61      13.56
H       4.72      -3.39      12.02
H       6.41       0.39      11.89
H       4.67       1.31      13.43
C      -1.22       0.77      18.65
N      -0.15       0.86      17.84
C      -2.13      -0.28      18.51
N      -1.98      -1.24      17.58
C      -0.92      -1.13      16.77
N       1.63      -0.77      15.08
C       0.00      -0.08      16.89
N       1.93       1.19      16.14
C       1.16       0.08      16.03
N       2.93       1.09      15.26
C       2.72      -0.10      14.63
N       5.64      -1.54      11.91
