22

N       5.04       4.65       8.97
N       5.18      -4.85       8.90
H       6.19       1.68      10.08
H       6.41      -1.86       9.85
H       3.61       4.98       7.51
H       3.61      -5.21       7.59
C       5.61       2.38       9.49
C       5.77      -2.58       9.33
C       5.75       3.76       9.69
C       5.95      -3.94       9.51
C       4.16       4.20       8.05
C       4.20      -4.43       8.07
C       3.94       2.85       7.81
C       3.94      -3.08       7.83
C       4.69       1.90       8.53
C       4.74      -2.11       8.48
C       4.58       0.50       8.38
C       4.58      -0.72       8.35
I       7.07       4.39      11.19
I       7.50      -4.56      10.78
I       2.51       2.28       6.40
I       2.40      -2.53       6.54
