23

H       1.34       0.79       7.51
C      -0.28       2.50       6.19
C      -0.98       3.69       6.07
C      -0.23       0.00       6.25
C      -0.70      -1.14       5.57
C       0.04      -2.31       5.57
C       1.27      -2.37       6.24
C       1.72      -1.25       6.95
C       0.98      -0.08       6.96
C       2.13      -3.58       6.16
H      -4.09       2.62       5.86
H      -2.97       0.42       6.11
N      -2.33       3.73       5.94
H       0.81       2.54       6.21
H      -0.47       4.65       6.07
H      -1.64      -1.08       5.01
O       3.33      -3.56       6.55
C      -3.00       2.56       5.96
H      -0.32      -3.20       5.03
O       1.62      -4.66       5.66
C      -2.37       1.33       6.08
H       2.67      -1.32       7.48
C      -0.97       1.28       6.18
