23

H       5.79       3.93      16.22
H       9.48       2.26      14.70
H      11.39      -0.24      15.79
C       7.72       6.14      12.51
C       6.56       2.20      17.23
C       7.54       1.19      17.33
C       8.61       1.23      16.39
C       8.66       2.24      15.42
C       7.65       3.21      15.34
C       6.59       3.19      16.26
C       7.43       0.22      18.34
C       7.69       4.21      14.33
C       7.71       5.07      13.47
C       7.30      -0.58      19.24
C       7.27      -1.64      20.21
C       9.66       0.17      16.42
O       6.58       6.62      12.19
O       8.86       6.51      12.08
O       6.12      -2.06      20.58
O       8.40      -2.09      20.59
O       9.56      -0.91      16.98
O      10.78       0.53      15.71
F       5.55       2.20      18.12
