10

C       0.51       4.44       7.86
O      -0.01       1.03       1.50
C       0.57       3.75       6.60
C       1.12       1.27       2.03
C       0.73       3.17       5.54
C       0.89       2.52       4.37
O       2.28       1.01       1.58
C       1.05       1.94       3.30
O      -0.65       4.73       8.32
O       1.63       4.70       8.40
