16

C      20.91       6.96      10.39
O      24.54      10.62      14.45
O      25.73       8.69      14.35
H      20.85       9.39      11.35
H      24.81       7.02      13.06
C      23.73       8.86      13.09
C      21.93       7.55      11.32
C      22.59       9.53      12.59
C      23.07       6.87      11.81
C      21.73       8.87      11.73
O      21.09       5.76      10.01
Cl      22.18      11.17      12.98
Cl      23.49       5.24      11.41
C      23.94       7.53      12.68
C      24.75       9.44      14.04
O      19.93       7.71      10.05
