36

H       1.89      18.99       6.46
O      -2.39      17.68       0.85
H       0.08      17.77       7.67
O      -1.42      16.71       2.68
H      -8.27      20.13      -0.39
H      -2.18      17.56       6.65
H      -0.82      19.76       3.20
H       1.43      19.97       4.21
H      -3.89      19.48       6.03
H      -4.78      17.87       1.45
H      -6.18      20.07       0.95
H     -10.20      17.66       2.58
C      -3.01      18.58       4.28
C      -8.14      18.18       2.96
C      -9.32      18.20       2.23
C      -9.35      18.89       1.02
C      -8.23      19.58       0.55
C      -7.06      19.54       1.31
C      -6.98      18.85       2.53
C      -0.62      19.31       4.17
C       0.64      19.44       4.75
C       0.90      18.89       6.01
C      -4.08      19.10       5.02
C      -2.28      17.46       2.10
C      -5.37      19.22       4.51
C      -0.11      18.21       6.69
C      -6.39      19.88       5.38
C      -1.38      18.10       6.12
C      -5.65      18.78       3.20
C      -1.65      18.64       4.85
C      -4.59      18.24       2.46
C      -3.30      18.13       2.97
Br     -10.94      18.88      -0.03
Br      -8.13      17.17       4.58
O      -6.24      19.73       6.64
O      -7.30      20.57       4.80
