26

C       0.85       0.85      33.30
C      -0.85      -0.85      33.30
C      -0.85      -0.85      36.26
C       0.85       0.85      36.26
C       0.00      -0.00      34.04
C       0.00      -0.00      35.52
O       0.81       0.81      29.13
O      -0.81      -0.81      29.13
O      -0.81      -0.81      40.43
O       0.81       0.81      40.43
H       1.52       1.52      31.36
H      -1.52      -1.52      31.36
H      -1.52      -1.52      38.20
H       1.52       1.52      38.20
H       1.53       1.53      33.82
H      -1.53      -1.53      33.82
H      -1.53      -1.53      35.75
H       1.53       1.53      35.75
C      -0.00      -0.00      29.70
C       0.00      -0.00      39.86
C       0.00      -0.00      31.20
C       0.00      -0.00      38.36
C       0.85       0.85      31.91
C      -0.85      -0.85      31.91
C      -0.85      -0.85      37.65
C       0.85       0.85      37.65
