52

C       0.76      16.75      29.83
C       1.09      16.69      26.93
C       5.19      19.27      30.21
C       5.77      18.64      27.47
C       6.56      17.15      23.99
C       6.51      16.65      21.10
C       2.00      19.30      23.74
C       2.11      19.28      20.87
H       0.10      17.55      30.19
H       1.00      16.12      30.70
H       0.20      16.14      29.12
H       0.87      15.65      27.20
N       3.42      17.62      25.82
N       4.33      18.24      25.19
H       6.01      18.65      30.60
H       4.73      19.76      31.07
H       5.64      20.05      29.58
H       5.80      19.61      26.96
H       6.06      17.90      26.73
H       6.53      18.65      28.27
H       1.39      16.72      25.88
H       0.16      17.26      27.06
H       6.39      16.17      24.47
H       6.72      17.87      24.80
H       7.49      17.08      23.41
H       7.32      17.31      20.75
O       4.04      17.72      32.11
O       1.81      18.00      32.09
H       6.16      16.10      20.22
H       6.94      15.93      21.79
H       1.93      20.36      23.48
H       2.06      19.22      24.83
H       1.05      18.83      23.44
H       1.30      18.56      20.64
H       2.45      19.69      19.92
H       1.66      20.09      21.45
C       4.31      17.85      19.52
C       2.95      17.89      31.48
C       3.02      17.93      29.99
C       4.19      18.47      29.40
C       4.42      18.31      28.03
C       3.38      17.75      27.23
C       2.18      17.27      27.81
C       2.01      17.33      29.21
C       5.40      17.58      23.14
C       4.26      18.13      23.78
C       3.17      18.65      23.05
C       3.22      18.61      21.64
C       4.31      17.97      21.01
C       5.39      17.43      21.75
O       3.20      17.68      18.93
O       5.44      17.92      18.89
