30

H      14.07       5.39       6.04
H      13.59       1.74       8.54
C      13.72       3.06       1.90
H      13.84       1.64       6.21
O      12.00       5.38      12.84
H      14.97       2.99       6.27
O      10.84       3.43      12.92
H      12.11       5.76       8.18
O      13.42       1.91       1.44
O      14.41       3.96       1.29
H      13.83       5.46       8.38
H      11.38       2.04       5.87
H      11.11       2.13       8.21
H      14.70       3.12       8.60
H      12.34       5.65       5.85
H      10.49       3.77       8.07
H      10.76       3.69       5.74
C      11.33       3.12       7.79
C      13.79       2.74       8.11
C      13.96       2.66       6.58
C      13.30       3.36       3.24
C      12.61       3.68       8.46
C      11.50       3.06       6.25
C      12.92       3.56       5.87
C      13.09       5.02       6.36
C      12.92       5.09       7.89
C      13.11       3.47       4.43
C      12.40       3.77       9.89
C      11.65       4.27      12.37
C      12.15       3.91      11.07
