30

H       5.78       9.44       4.43
H       5.77       9.59       1.92
H       6.11       5.30       1.70
H       5.86      10.64      -1.72
H       5.83       6.34      -1.97
H       5.77       6.50      -4.48
H       6.19       5.05       5.25
H       5.88      10.91      -5.27
C       5.95       7.26       5.95
C       5.80       8.71      -5.98
C       5.96       7.30       4.47
C       5.86       8.54       3.81
C       5.85       8.63       2.43
C       5.94       7.44       1.67
C       6.04       6.20       2.30
C       6.07       6.11       3.70
C       5.85       9.74      -2.33
C       5.85       8.49      -1.71
C       5.82       7.30      -2.48
C       5.80       7.40      -3.85
C       5.81       8.65      -4.51
C       5.84       9.84      -3.73
N       5.93       7.39       0.26
N       5.87       8.53      -0.30
O       6.14       6.11       6.52
O       5.75       8.33       6.59
O       5.89       9.88      -6.53
O       5.70       7.63      -6.64
O       6.18       4.89       4.26
O       5.86      11.07      -4.28
