16

C      18.47       8.56      28.04
C      18.49       9.21      26.80
S      18.47       6.85      27.89
S      18.48      10.92      26.96
C      18.46      12.04      29.46
O      18.45      13.12      28.77
O      18.54       5.82      24.11
O      18.45      11.95      30.73
C      18.49       5.73      25.38
O      18.42       4.65      26.07
Br      18.51       8.92      23.94
Br      18.45       8.85      30.90
C      18.50       8.31      25.71
C      18.46       9.47      29.13
C      18.49       6.98      26.15
C      18.47      10.79      28.70
