26

H       4.11      -0.65       7.11
H       5.42      -4.94       8.54
Br       4.59      -6.47      10.72
Br       5.00       0.91       4.98
H       7.55      -3.49       5.00
H       6.36      -4.34       6.97
H       2.07      -2.04      10.74
H       3.20      -1.23       8.71
O       7.10      -0.06       3.23
O       2.55      -5.46      12.53
O       1.47      -3.47      12.48
O       8.14      -2.07       3.25
C       7.32      -1.22       3.72
C       2.32      -4.31      12.03
C       6.53      -1.61       4.93
C       3.08      -3.92      10.81
C       5.54      -0.83       5.55
C       4.86      -1.30       6.68
C       4.04      -4.73      10.15
C       4.69      -4.27       9.00
C       2.82      -2.66      10.24
C       3.45      -2.22       9.10
C       6.79      -2.88       5.48
C       6.11      -3.35       6.60
C       5.13      -2.56       7.23
C       4.41      -3.01       8.45
