28

H       6.99       5.35       2.08
H       2.71       5.23      -2.09
H       6.83       3.89      -2.28
H       2.80       4.24       2.37
C       4.85       4.56       0.64
C       4.81       4.50      -0.58
C       4.82       5.26      -6.28
C       4.94       5.68       6.28
C       6.08       5.21       2.65
C       3.61       5.00      -2.65
C       5.93       4.27      -2.75
C       3.73       4.60       2.82
C       6.07       5.49       4.01
C       3.64       5.19      -4.02
C       5.90       4.48      -4.12
C       3.78       4.91       4.16
C       4.93       5.38       4.82
C       4.78       4.97      -4.81
C       4.89       4.77       2.04
C       4.78       4.56      -1.99
O       5.93       5.62      -6.78
O       3.86       6.09       6.81
O       6.03       5.48       6.90
O       3.73       5.11      -6.92
F       7.23       5.94       4.54
F       2.50       5.66      -4.60
F       7.03       4.17      -4.81
F       2.63       4.71       4.87
