44

H       4.75       4.43       1.91
H       4.40       3.87      -0.52
H       6.38       0.09       0.24
H       6.66       0.82       2.61
H       8.05       0.96      -4.45
H       7.61       0.43      -6.86
H       0.97       0.49      -5.68
H       1.41       1.06      -3.26
H       2.54       1.62     -10.13
H       2.18       1.16     -12.58
H       4.21      -2.44     -12.35
H       4.67      -2.13      -9.90
N       5.72       2.65       2.34
N       5.13       1.56      -1.69
N       3.90       0.02      -8.46
N       3.17      -0.65     -12.54
O       2.86       1.59      -1.27
O       7.39       1.39      -2.04
O       1.63       0.01      -8.05
O       6.16      -0.00      -8.88
C       5.10       3.49       1.48
C       4.91       3.17       0.14
C       5.36       1.94      -0.32
C       6.01       1.07       0.56
C       6.17       1.47       1.88
C       3.77       1.43      -2.08
C       3.54       1.08      -3.50
C       4.63       0.91      -4.38
C       5.97       1.03      -3.93
C       6.26       1.33      -2.51
C       7.03       0.87      -4.82
C       6.78       0.58      -6.17
C       5.48       0.45      -6.63
C       4.38       0.61      -5.75
C       3.05       0.47      -6.19
C       1.99       0.62      -5.31
C       2.23       0.93      -3.96
C       2.77       0.15      -7.61
C       5.25       0.13      -8.06
C       3.64      -0.23      -9.84
C       2.92       0.71     -10.59
C       2.71       0.46     -11.94
C       3.85      -1.56     -11.82
C       4.10      -1.39     -10.46
