28

H       6.53       7.34      12.70
H       6.51       7.43      15.20
H       2.31       8.21      12.64
H       6.39       7.32      22.08
H       2.17       8.19      22.01
H       2.19       8.10      19.51
C       4.29       7.96      23.67
C       4.41       7.57      11.04
C       4.43       7.75      12.52
C       5.61       7.56      13.25
C       5.60       7.60      14.63
C       4.40       7.85      15.34
C       3.24       8.10      14.58
C       3.23       8.05      13.19
C       4.36       7.81      16.75
C       4.34       7.72      17.96
C       4.30       7.69      19.37
C       5.46       7.43      20.14
C       5.47       7.48      21.52
C       4.28       7.78      22.19
C       3.09       7.97      21.47
C       3.10       7.93      20.08
O       5.41       7.86      24.27
O       5.52       7.27      10.49
O       3.29       7.67      10.45
O       3.18       8.26      24.22
F       2.08       8.37      15.24
F       6.62       7.16      19.48
