26

H       5.75       8.00       4.84
C       7.64      10.43       8.44
C       6.46       6.18       3.97
C       7.38       5.10       3.99
C       8.41       5.20       4.96
C       8.54       6.30       5.80
C       7.58       7.34       5.79
C       6.53       7.24       4.86
C       7.32       3.99       3.13
C       7.64       8.42       6.69
C       7.64       9.34       7.48
C       7.36       3.00       2.42
C       7.36       1.88       1.52
N       5.35       6.21       2.99
N       9.39       4.09       5.07
N       9.66       6.37       6.75
O       6.50      10.85       8.81
O       8.78      10.85       8.81
O       8.50       1.47       1.12
O       6.23       1.42       1.20
O       4.40       6.96       3.23
O       5.46       5.49       1.99
O       8.93       2.98       5.32
O      10.58       4.39       4.91
O       9.72       5.47       7.61
O      10.43       7.32       6.63
