23

C       3.44      -2.83      17.62
O       1.39      -3.81      10.80
C       2.82      -3.89      12.65
O       3.96      -2.69      18.77
H       5.31      -6.52      14.21
C       4.89      -4.84      17.15
O       3.36      -4.86      10.47
H       1.91      -4.04      13.25
C       4.17      -4.71      14.46
H       3.10      -2.82      12.70
C       6.21      -6.96      16.76
H       5.16      -4.87      18.21
C       3.69      -3.75      15.34
H       6.24      -7.79      16.04
C       4.05      -3.83      16.69
H       7.24      -6.62      16.93
C       5.35      -5.83      16.27
H       5.83      -7.36      17.72
C       2.53      -4.23      11.20
H       3.02      -2.96      15.02
O       2.42      -2.21      17.18
C       4.98      -5.76      14.92
O       3.88      -4.72      13.12
