23

N      14.92      19.01      14.79
O      23.96      18.87      12.77
O      24.07      20.47      14.36
C      15.67      17.95      14.44
C      17.04      18.04      14.25
C      17.69      19.28      14.39
C      16.89      20.38      14.74
C      15.52      20.21      14.93
H      15.14      17.01      14.32
H      17.61      17.14      14.00
H      17.32      21.38      14.83
C      19.80      18.58      13.25
C      19.15      19.40      14.19
C      19.91      20.31      14.94
H      19.22      17.89      12.63
C      21.17      18.67      13.07
H      19.43      20.93      15.69
C      21.29      20.39      14.76
H      21.68      18.04      12.33
C      21.93      19.57      13.83
C      23.42      19.62      13.62
H      21.90      21.07      15.36
H      14.88      21.04      15.20
