21

O      -0.70       1.71      11.91
H       2.05      -0.67      14.62
H       2.70       0.80      13.81
H       0.24      -1.18       8.90
H      -0.66       2.70      11.95
O       0.53      -3.47      12.69
H      -1.56      -1.93      10.20
H       3.03      -0.82      13.11
C      -0.15      -1.05      11.17
C       0.48      -1.12      12.39
C      -0.14       0.10      10.27
C      -0.31       1.41      10.64
C       0.39      -2.33      13.25
C      -0.09       2.57       9.76
C       2.29      -0.21      13.65
O       0.21      -2.12      14.50
O       0.09       2.39       8.51
O      -0.73      -2.19      10.64
O      -0.09       3.71      10.38
O       1.11      -0.01      12.86
O      -0.00      -0.23       8.93
