20

C      17.80       9.22      27.22
C      14.36      10.90      29.73
C      15.70      10.28      27.94
C      16.45       9.82      29.02
S      16.45       9.99      26.42
S      15.72      10.14      30.54
H      18.35       8.53      30.45
H      19.39       8.20      29.08
H      13.62      11.24      26.50
H      12.72      11.81      27.89
N      18.61       8.70      29.49
N      13.59      11.49      27.48
C      18.88       8.67      26.43
O      19.85       8.12      27.08
O      18.78       8.78      25.16
C      13.28      11.42      30.52
O      13.35      11.29      31.80
O      12.30      11.98      29.88
C      17.68       9.20      28.63
C      14.48      10.92      28.33
