16

C      12.08      13.60      18.92
C       9.92      12.31      18.43
C      12.99      14.13      19.81
C      10.73      12.79      20.73
C      11.65      13.31      21.63
F      11.38      13.16      22.95
O      13.76      14.27      23.35
C      13.83      14.58      22.12
H      13.87      14.66      19.45
H       9.84      12.29      21.10
C      10.93      12.92      19.35
O       8.84      11.89      18.97
O      14.69      15.35      21.58
F      12.33      13.79      17.60
O      10.21      12.25      17.19
C      12.81      13.99      21.20
