18

C       7.14       6.09       1.90
O      12.06       4.38      -1.26
C       7.13       4.31      -2.77
C       9.29       4.78      -1.58
H       6.12       5.19      -0.42
O      12.09       6.05       0.27
H       9.83       4.46      -2.48
C       7.91       5.65       0.69
O       7.73       4.25      -3.89
H       9.86       5.98       1.56
C       9.31       5.65       0.68
O       5.90       4.01      -2.62
C       7.90       4.76      -1.57
O       7.76       6.20       3.01
C      11.50       5.21      -0.48
O       5.90       6.31       1.76
C       7.21       5.20      -0.43
C      10.00       5.22      -0.46
