26

C      11.27       9.80       2.56
C      16.14      10.95       1.41
H      12.12       8.11      -2.30
H      15.31       6.09      -0.26
H      12.10       9.88      -0.54
H      15.30       7.86       1.51
H      10.66      10.30       3.32
H      16.76      11.70       1.90
H      10.75       9.87       1.60
H      16.66       9.99       1.48
H      11.33       8.73       2.83
H      16.08      11.21       0.34
N      13.06      11.39       3.30
N      14.36      11.69       3.00
O      13.02       6.15      -3.49
O      14.41       4.89      -2.22
C      13.71       5.94      -2.43
C      13.71       6.99      -1.39
C      12.81       8.06      -1.46
C      14.61       6.93      -0.31
C      12.80       9.05      -0.47
C      14.61       7.92       0.67
C      13.70       8.99       0.60
C      13.70      10.03       1.64
C      12.64      10.40       2.48
C      14.77      10.87       2.00
