13

O       9.60       7.07       9.35
C       5.63       6.50      13.67
C       7.96       7.43      10.97
C       8.79       6.50      10.11
C       6.46       7.43      12.81
O       7.21       6.65      11.89
H       5.80       8.13      12.27
H       8.62       8.13      11.51
H       7.13       8.01      13.47
O       5.84       5.24      13.56
H       7.28       8.01      10.32
O       8.58       5.24      10.23
O       4.81       7.07      14.44
