22

O      12.00       7.69       1.79
O      10.14       6.72       2.45
H       9.86       4.51       1.71
H      13.86       4.40      -2.67
H      14.83       3.75      -1.31
H      12.35       2.37      -2.53
H      13.35       1.74      -1.19
C      10.13       2.12       0.34
C      13.61       6.85       0.01
C      12.05       3.42      -0.61
C      10.95       3.35       0.25
C      10.70       4.48       1.02
C      11.53       5.60       0.94
C      12.66       5.68       0.10
C      12.87       4.55      -0.68
C      13.81       3.91      -1.69
C      12.88       2.64      -1.60
N      11.19       6.75       1.79
O      10.44       1.18      -0.47
O       9.18       2.07       1.20
O      14.63       6.83       0.76
O      13.36       7.71      -0.91
