26

H      10.02       9.79       7.65
H       9.51      14.70       7.86
H       5.59      14.22       5.18
H       5.90       9.70       5.17
H      11.76      10.09       9.09
H      11.33      14.67       9.19
C       8.02       9.23       5.96
C       7.58      14.97       6.04
C       7.88      10.67       6.20
C       8.86      11.46       6.93
C       6.73      11.31       5.68
C       9.91      10.87       7.67
C      10.80      11.62       8.42
C       7.64      13.52       6.25
C       6.62      12.73       5.69
C       8.73      12.89       6.96
C       9.64      13.62       7.76
C      10.66      13.02       8.47
O       6.97       8.58       5.55
O       6.44      15.52       5.74
O       8.65      15.65       6.14
O       9.14       8.64       6.11
O       5.54      13.23       5.06
O       5.70      10.68       5.08
O      11.81      11.07       9.16
O      11.55      13.72       9.25
