26

H       3.32      12.35       3.88
H       1.76      11.78       3.28
H       1.84      13.35       1.56
H       3.38      13.97       2.18
H       3.43      14.21       5.57
H       3.45      15.81       3.85
H      -0.31      14.08       5.38
H      -0.39      12.78       4.20
H      -0.35      14.35       2.47
H      -0.29      15.65       3.64
H       1.95      14.93       6.21
H       1.96      16.51       4.49
C       1.70      16.05       1.80
C       1.64      12.24       5.98
C       2.31      12.67       3.60
C       2.35      13.73       2.47
C       2.41      14.52       5.30
C       0.19      13.68       4.49
C       1.62      13.26       4.85
C       1.65      15.03       2.93
C       2.42      15.57       4.16
C       0.21      14.72       3.34
O       2.78      11.87       6.41
O       2.85      16.39       1.37
O       0.52      11.83       6.42
O       0.59      16.48       1.36
