30

C      25.29       7.23      13.58
C      24.38       7.33      14.68
C      25.18      10.64      16.14
C      25.20       9.52      15.31
C      24.32       8.40      15.51
C      26.94      11.69      14.84
C      27.00      10.58      13.99
C      27.90      10.47      12.89
C      26.26       6.07      11.69
C      26.17       8.33      13.36
C      26.05      11.72      15.91
C      26.12       9.47      14.21
O      25.35       4.04      10.86
O      27.34       4.74      10.04
H      27.84       7.08      10.64
H      28.69       9.38      11.24
H      24.66       5.27      12.88
H      24.50      10.69      16.99
H      23.60       8.42      16.34
H      27.60      12.55      14.67
O      25.34      12.79      17.90
O      26.64      13.95      16.44
F      28.74      11.53      12.67
F      23.53       6.28      14.89
C      26.32       4.86      10.80
C      26.01      12.91      16.82
C      27.14       7.14      11.47
C      27.10       8.28      12.28
C      27.98       9.39      12.06
C      25.34       6.11      12.73
