26

H       8.04      20.43      10.99
H       3.35      18.56       4.69
H       7.78      19.14       8.91
H       3.62      19.85       6.77
H       4.13      22.12      10.48
H       7.27      16.88       5.21
H       3.84      20.85       8.39
H       7.56      18.14       7.29
C       5.78      19.88       8.47
C       5.61      19.11       7.21
C       6.96      19.79       9.24
C       4.43      19.20       6.45
C       7.12      20.51      10.41
C       4.27      18.48       5.27
C       6.10      21.36      10.87
C       5.29      17.64       4.81
C       4.92      21.46      10.12
C       6.47      17.53       5.56
C       4.77      20.74       8.95
C       6.63      18.26       6.73
C       6.27      22.14      12.12
C       5.12      16.85       3.56
O       7.37      22.04      12.75
O       4.02      16.96       2.93
O       5.29      22.88      12.48
O       6.11      16.11       3.20
