20

H       9.71       9.61       7.31
H       9.49      12.10       7.44
H      14.68      12.50       8.45
H      14.67      12.64       6.67
H      14.89      10.13       6.49
H      14.91      10.00       8.27
C      11.48      13.96       7.57
C      11.91       8.12       7.28
C      11.58      12.48       7.52
C      11.83       9.60       7.34
C      12.81      11.83       7.50
C      10.59      10.25       7.36
C      12.93      10.44       7.41
C      10.46      11.63       7.44
C      14.29      12.06       7.52
C      14.43      10.49       7.41
O      10.32      14.49       7.50
O      10.79       7.51       7.16
O      13.06       7.58       7.34
O      12.59      14.58       7.69
