18

O       7.70      10.76      20.72
O       8.98       4.68      24.16
C       8.49       8.04      22.86
C       8.76       5.95      24.17
C       8.02       8.04      20.48
H       8.26       4.85      21.67
C       7.76       5.96      19.16
N       8.26      10.19      21.67
O       7.54       4.69      19.17
H       8.65       8.59      23.78
C       8.26       8.71      21.67
H       7.86       8.59      19.55
C       8.49       6.64      22.86
O       8.77       6.65      25.22
O       7.75       6.65      18.11
C       8.02       6.64      20.47
O       8.81      10.76      22.62
C       8.26       5.94      21.67
