26

H       5.02      -9.36      16.47
H       0.93     -10.13      18.33
H       1.15     -11.25      16.47
H       5.24     -10.47      18.33
H       1.13     -11.19      13.99
H       5.23     -10.42      20.81
O       1.99     -10.63      23.03
O       4.22     -10.21      11.78
H       5.04      -9.42      13.99
H       0.94     -10.19      20.81
O       4.18      -9.98      23.03
O       1.95     -10.40      11.78
C       3.08     -10.30      12.35
C       3.09     -10.30      22.45
C       1.99     -10.81      15.94
C       4.29     -10.38      18.87
C       4.18      -9.79      15.94
C       1.88     -10.23      18.87
C       1.98     -10.80      14.55
C       3.08     -10.30      16.66
C       4.29     -10.36      20.26
C       4.19      -9.81      14.55
C       3.09     -10.30      18.14
C       1.88     -10.24      20.26
C       3.08     -10.30      13.84
C       3.09     -10.30      20.96
