34

H       7.35       6.70       8.06
H       6.55       2.86       9.91
H      18.58       6.67       8.30
N       5.85       5.99       9.37
H      18.44       2.34       8.48
N       5.61       4.77       9.95
H      11.96       1.68       7.66
H      13.44       2.83       5.53
H      13.59       3.08       9.54
H      11.74       5.26       9.45
H      13.20       6.41       7.30
N      20.01       5.16       8.72
N      19.95       3.79       8.78
N      11.44       5.12       5.20
O      11.46       4.46       4.15
O      10.87       6.22       5.35
C       6.96       5.87       8.64
C       6.57       3.89       9.57
C       7.47       4.56       8.73
C      18.77       5.60       8.42
C      18.71       3.39       8.51
C      17.89       4.51       8.26
C      13.07       3.36       6.42
C      12.26       2.73       7.60
C       8.70       4.14       8.18
C      16.54       4.47       7.89
C      12.09       4.56       6.38
C      11.23       3.93       7.58
C      12.93       5.36       7.41
C      13.97       4.16       7.47
C      12.15       4.72       8.60
C      13.13       3.51       8.64
C       9.82       3.94       7.76
C      15.37       4.32       7.56
