16

C       0.18      13.43      13.41
O      -1.63       8.24      16.12
C      -1.71       9.23      15.36
H      -1.65      11.55      13.93
O       1.21      14.23      13.34
C      -0.54      10.13      15.13
H       2.48      12.53      14.57
O      -0.93      13.70      12.90
C      -0.68      11.30      14.37
H       2.77      10.42      15.89
C       0.40      12.16      14.17
H       0.80       8.91      16.27
C       1.65      11.84      14.73
O      -2.80       9.57      14.72
C       1.80      10.67      15.47
C       0.71       9.82      15.68
