16

O       5.59       9.31      10.36
H       8.71      11.60      11.09
H       8.66      14.10      11.16
H       4.55      14.05       9.90
H       4.59      11.54       9.85
C       7.81      12.15      10.83
C       7.78      13.53      10.87
C       5.45      13.51      10.17
C       5.47      12.11      10.13
C       6.66      11.43      10.46
C       6.71       9.95      10.42
C       6.60      14.22      10.53
C       6.60      15.70      10.55
O       7.86       9.40      10.45
O       7.73      16.28      10.72
O       5.48      16.31      10.39
