12

C       6.96       6.27       3.20
C       6.23       5.72       4.43
C       5.33       4.53       4.04
C       6.05       3.20       3.78
N       7.19       5.32       5.47
O       6.26       6.95       2.41
H       4.59       4.35       4.83
H       4.76       4.79       3.14
O       8.22       5.99       3.10
H       5.57       6.53       4.77
O       7.33       3.18       3.63
O       5.31       2.18       3.73
