48

O      19.50      12.73      21.89
C      19.61      10.54      22.80
O      21.87       1.60      21.89
C      21.76       3.79      22.80
C      19.28       9.62      23.81
C      22.09       4.71      23.81
H      17.90      15.77      27.10
H      23.47      -1.44      27.10
C      19.69       8.30      23.70
C      21.68       6.03      23.70
H      18.33      13.38      26.50
H      23.04       0.95      26.50
C      20.44       7.86      22.59
C      20.93       6.47      22.59
H      18.65      14.64      22.38
H      22.71      -0.31      22.38
C      20.72       8.77      21.56
C      20.65       5.56      21.56
H      18.16      16.93      23.12
H      23.21      -2.60      23.12
C      18.07      15.47      26.06
C      23.30      -1.14      26.06
C      20.31      10.09      21.67
C      21.06       4.24      21.67
H      18.69       9.91      24.68
H      22.67       4.42      24.68
C      18.31      14.14      25.73
C      23.06       0.19      25.73
N      18.02      16.45      25.14
N      23.35      -2.12      25.14
H      19.43       7.58      24.47
H      21.94       6.75      24.47
C      18.53      13.80      24.38
C      22.84       0.53      24.38
N      18.80      12.47      24.07
N      22.57       1.86      24.07
H      21.32       8.44      20.71
H      20.05       5.89      20.71
C      18.47      14.83      23.43
C      22.90      -0.50      23.43
H      20.56      10.82      20.90
H      20.81       3.51      20.90
C      18.22      16.12      23.85
C      23.15      -1.79      23.85
H      18.64      11.81      24.84
H      22.73       2.52      24.84
C      19.29      11.99      22.86
C      22.08       2.34      22.86
