36

H       7.66       3.42      12.37
H       6.97       5.68      13.20
H      13.13      14.91       7.50
H      13.23      12.88       6.07
H       7.97       7.71      12.23
H      12.35      10.71       6.91
H      10.31       5.30       9.53
H      11.18      12.62      10.59
H       9.35       3.24      10.54
H      12.08      14.78       9.76
H      11.82       7.08      10.38
H       9.15      11.06       9.23
C       7.60       9.05       9.85
C      13.38       9.02       9.60
C      11.88       9.08       9.64
C       9.09       9.03       9.90
C       7.71       5.58      12.40
C      12.79      12.82       7.07
C       8.26       6.74      11.84
C      12.29      11.61       7.54
C       9.20       6.65      10.80
C      11.72      11.52       8.81
C       9.59       5.38      10.35
C      11.14      10.24       9.32
C      11.63      12.68       9.60
C       9.04       4.22      10.91
C      12.14      13.89       9.13
C       8.10       4.32      11.94
C      12.73      13.97       7.87
C      11.21       7.93      10.09
C       9.75      10.19       9.48
C       9.82       7.87      10.24
O       6.99      10.07      10.32
O      13.92       7.90       9.90
O       7.01       8.06       9.30
O      14.00      10.09       9.31
