36

O      37.77      21.09      10.72
H      39.94      21.62       9.51
H      38.08      17.89       8.48
H      41.68      21.23       7.79
H      39.79      17.51       6.71
H      41.86      16.95       6.29
O      37.12      18.93      10.40
O      45.45      24.19      -0.07
O      45.85      25.40       1.82
C      37.86      19.94      10.15
C      38.91      19.77       9.11
C      39.92      20.72       8.90
C      38.88      18.61       8.32
C      40.88      20.50       7.92
C      39.84      18.40       7.34
C      40.87      19.34       7.12
C      41.87      19.11       6.06
C      42.26      17.80       5.73
H      44.67      21.94       0.30
H      45.01      24.30       3.87
H      43.79      20.04       1.63
H      44.11      22.41       5.22
H      44.41      18.45       3.18
H      42.10      21.19       5.55
H      43.45      16.54       4.45
C      45.44      24.36       1.20
C      44.90      23.24       2.01
C      44.56      22.03       1.38
C      44.73      23.37       3.39
C      44.06      20.97       2.13
C      44.22      22.31       4.14
C      43.88      21.09       3.52
C      43.34      19.96       4.30
C      43.70      18.64       3.98
C      42.43      20.17       5.34
C      43.16      17.57       4.69
