54

H       2.05      20.48      14.38
H       4.97      25.23      10.58
H       4.82      22.70      16.82
H       1.21      26.73      12.03
H       4.95      20.77      18.37
H       1.20      28.39      10.18
H       5.41      23.32      14.60
H       1.05      24.41      12.48
C       1.98      18.20      15.76
H       1.17      22.66      14.22
C       2.94      17.04      15.45
H       5.29      25.09      12.87
C       2.30      15.99      14.54
C       5.29      26.79       8.46
O       4.15      29.38       7.97
O       2.47      18.03      18.73
C       4.77      26.27       7.10
C       5.85      26.19       6.02
O       1.89      29.28       7.99
O       4.73      18.17      18.79
H       1.35      15.62      14.97
H       2.08      16.41      13.55
H       2.95      15.12      14.40
H       3.85      17.43      14.97
H       3.27      16.57      16.39
H       1.28      17.89      16.55
H       1.38      18.42      14.86
H       6.24      27.18       5.76
H       6.70      25.57       6.35
H       5.45      25.75       5.10
H       4.33      25.27       7.25
H       3.95      26.92       6.75
H       5.77      27.77       8.33
H       6.06      26.10       8.83
C       3.04      28.89       8.37
C       3.58      18.50      18.33
C       2.70      19.47      16.15
C       4.18      26.88       9.48
C       2.66      20.56      15.28
C       4.16      25.95      10.52
C       3.40      21.74      15.50
C       3.11      25.87      11.45
C       4.24      21.80      16.62
C       2.03      26.75      11.31
C       4.31      20.72      17.49
C       2.03      27.69      10.29
C       3.53      19.57      17.29
C       3.10      27.79       9.38
C       4.45      23.56      14.14
C       2.01      24.18      12.95
C       4.38      24.55      13.16
C       2.08      23.19      13.92
C       3.16      24.87      12.53
C       3.31      22.85      14.53
