24

N       7.98      11.26       8.98
N       5.88       9.62       6.44
N      12.19      13.23      11.00
C      11.10      12.70      11.59
O       9.71      10.46       7.66
C      10.27      11.85       9.50
H       7.74      11.86       9.79
C       9.30      11.11       8.63
C       6.88      10.76       8.29
C      10.12      12.01      10.88
C      11.41      12.38       8.89
H       9.25      11.62      11.42
H      11.02      12.84      12.66
C      12.34      13.07       9.67
H      11.56      12.25       7.82
H      13.24      13.51       9.24
C       4.65       9.86       6.94
C       4.48      10.53       8.15
C       5.60      10.99       8.84
C       6.97      10.05       7.08
H       5.51      11.53       9.78
H       7.93       9.85       6.62
H       3.81       9.48       6.37
H       3.48      10.69       8.54
