58

H       2.93       7.55       0.55
H       6.57       9.82       0.12
H       6.17       6.91       3.30
H       8.30       7.18       3.35
H       7.57       8.58       4.17
H      10.00       7.31       5.15
H      12.20       8.19       5.80
H      11.77      11.36       2.89
H       9.59      10.43       2.22
H      14.85      14.69       6.08
H      11.20      14.54       3.78
H      11.61      12.19       7.39
H      17.35      12.08       7.14
H      18.08      10.93       5.98
H      15.64      10.30       7.46
H      13.45       9.45       6.77
H      13.87      11.47       2.98
H      16.06      12.35       3.71
C       3.71       6.04       2.65
C       4.48       7.13       1.98
C       3.93       7.79       0.89
C       4.69       8.76       0.22
C       5.98       9.07       0.65
C       6.52       8.42       1.77
C       5.77       7.45       2.44
C       4.11       9.41      -0.99
C       8.27       8.28       3.37
C       9.63       8.83       3.66
C      10.39       8.21       4.66
C      11.63       8.71       5.03
C      12.16       9.86       4.40
C      11.40      10.46       3.39
C      10.16       9.95       3.02
C      14.07      13.03       8.07
C      13.29      13.41       6.85
C      13.85      14.30       5.93
C      13.09      14.70       4.83
C      11.80      14.21       4.63
C      19.13      13.29       5.54
C      12.00      12.89       6.65
C      13.66      15.72       3.89
C      17.38      11.78       6.08
C      16.02      11.36       5.62
C      15.26      10.54       6.47
C      14.02      10.07       6.07
C      13.48      10.38       4.81
C      14.24      11.22       3.97
C      15.49      11.70       4.37
O       2.53       5.81       2.20
O       4.23       5.40       3.63
O       2.87       9.23      -1.20
O       4.90      10.10      -1.73
O       7.78       8.79       2.12
O      15.24      13.53       8.17
O      13.55      12.25       8.94
O      14.91      15.96       4.01
O      12.88      16.26       3.04
O      17.86      12.86       5.27
