22

C      -2.00       8.34       5.50
H      -2.04       8.66       7.64
H       0.43       8.38       7.90
H       2.67       8.04       6.87
H       3.00       7.30       2.65
C      -1.40       8.45       6.78
H      -1.71       7.94       3.41
C      -0.04       8.29       6.92
C       0.78       8.01       5.79
C       2.19       7.90       5.90
C       2.97       7.66       4.78
C       2.36       7.48       3.51
C       0.99       7.58       3.38
C       0.17       7.87       4.50
C      -1.23       8.05       4.39
H       0.52       7.45       2.41
O      -4.17       8.60       6.43
O      -3.96       8.54       4.17
O       4.94       7.83       6.08
O       5.14       7.56       3.84
C      -3.49       8.51       5.35
C       4.46       7.67       4.91
