32

O       1.91      12.96      18.99
O       0.87      11.13      18.37
H      -2.39      14.88      16.62
H      -2.16      16.56      18.25
H       1.40      15.63      18.99
H       0.39      16.87      18.21
H       0.01      15.50      16.34
H       1.31      14.48      16.95
H      -1.38      13.74      20.59
H       0.39      13.95      20.54
H      -1.19      12.22      18.84
H      -2.88      15.42      19.39
H      -2.84      13.68      17.83
C      -0.74      11.25      14.20
C      -2.06      15.55      18.68
C       0.44      15.80      18.47
C       0.34      14.92      17.21
C      -0.73      12.13      15.34
C      -0.71      15.47      19.45
C      -2.10      14.46      17.59
C      -0.71      13.79      17.42
C      -0.46      13.04      18.76
C      -0.53      14.01      19.95
C      -0.72      12.88      16.30
C      -0.69      16.37      20.58
C      -0.66      17.13      21.53
C      -0.64      18.02      22.66
N       0.88      12.31      18.71
O      -1.88      10.91      13.74
O       0.40      10.90      13.74
O      -1.77      18.38      23.12
O       0.50      18.37      23.10
