15

C       6.21      13.37      11.77
C       6.43      13.74      13.27
C       5.23      13.21      14.07
C       6.47      15.27      13.39
H       8.58      13.57      13.20
H       7.78      12.06      13.66
H       7.89      13.39      14.83
O       5.18      13.84      11.17
O       4.04      13.43      13.68
H       6.73      15.57      14.41
H       5.50      15.73      13.16
C       7.74      13.15      13.78
O       5.47      12.53      15.12
H       7.22      15.68      12.70
O       7.07      12.65      11.21
