34

H       7.27       5.41      21.24
H       2.43       5.71      16.13
H       1.08       4.58      18.80
H       1.65       6.07      19.56
H       1.11       6.08      17.87
H       2.24       3.61      20.19
H       3.05       3.48      21.77
H       2.11       4.92      21.40
H       8.56       4.37      18.42
H       8.15       6.02      17.93
H       8.67       5.68      19.60
H       7.37       3.63      16.89
H       6.63       3.89      15.31
H       7.63       5.16      16.02
C       4.58       5.44      14.68
C       5.10       5.16      22.66
C       4.05       4.76      20.38
C       6.44       5.20      20.58
C       6.65       5.09      19.22
C       5.51       4.95      18.35
C       5.64       4.90      16.92
C       3.26       5.41      16.77
C       3.05       5.23      18.12
C       4.19       4.95      18.95
C       5.17       5.00      21.18
C       4.52       5.22      16.16
C       1.66       5.50      18.62
C       2.79       4.17      20.96
C       8.08       5.29      18.76
C       6.89       4.38      16.25
O       3.49       5.29      14.02
O       5.69       5.81      14.17
O       6.21       5.40      23.26
O       3.97       5.09      23.24
