48

C       6.26      12.15       7.01
H       7.85      18.97      15.28
C       6.26      10.85       6.26
H       4.68      22.72       8.79
O       7.63      18.08      17.54
O       4.89      24.23       6.88
H       7.71      18.90      12.80
H       4.81      20.53       9.97
O       6.22      16.36      17.77
O       6.31      23.57       5.29
H       5.23      15.38      13.07
H       7.29      19.01       6.79
O       5.20      10.51       5.65
O       7.33      10.15       6.28
H       5.38      15.48      15.55
H       7.14      21.20       5.63
H       6.26      19.25      11.11
H       6.44      14.95      11.11
H       6.08      17.10       7.40
H       4.83      15.24       6.93
H       7.69      13.62       9.73
H       4.80      13.07       5.72
H       7.72      11.49       8.46
C       6.82      17.25      17.03
C       5.71      23.38       6.42
C       6.63      17.23      15.56
C       5.90      22.09       7.14
C       7.27      18.20      14.78
C       5.26      21.90       8.37
C       7.18      18.15      13.40
C       5.34      20.68       9.02
C       6.47      17.13      12.75
C       6.06      19.61       8.46
C       5.83      16.16      13.54
C       6.69      19.81       7.22
C       5.90      16.21      14.93
C       6.62      21.04       6.57
C       6.37      17.10      11.28
C       6.16      18.32       9.17
C       6.26      18.30      10.57
C       6.36      15.90      10.57
C       6.16      17.10       8.48
C       6.26      15.88       9.17
C       6.26      14.59       8.43
C       5.48      14.43       7.27
C       7.04      13.51       8.86
C       5.46      13.21       6.59
C       7.06      12.31       8.15
