19

C      14.12       9.39       5.68
H      10.61       8.17       2.03
N      17.01       9.71       3.36
C      13.33       9.20       3.41
H      17.72       9.60       4.08
C      12.27       8.99       2.41
H      17.25       9.14       2.53
O      14.93       9.64       7.89
O      12.72       9.28       7.61
C      15.70       9.55       3.83
O      11.10       8.52       2.86
H      14.80       9.46       1.86
H      12.07       8.95       5.17
O      12.46       9.19       1.19
C      14.63       9.41       2.93
H      16.23       9.73       5.92
C      13.07       9.16       4.79
C      15.42       9.58       5.20
C      13.90       9.44       7.17
