28

H       0.30       7.50       6.86
H       0.64      12.44       6.95
H       4.35      10.94       9.58
H       4.27       8.45       9.43
H      -2.62       8.98       5.70
H      -1.55       7.58       5.45
H      -1.53       8.95       4.32
H      -1.34      11.43       4.37
H      -1.25      12.68       5.63
H      -2.46      11.40       5.73
C       2.40       6.92       8.45
C       2.56      12.69       8.72
C       2.42       8.41       8.35
C       1.40       9.17       7.69
C       3.49       9.05       8.97
C       0.37       8.58       6.91
C      -0.55       9.34       6.20
C       2.53      11.22       8.49
C       3.54      10.45       9.05
C       1.48      10.60       7.74
C       0.54      11.36       6.99
C      -0.46      10.77       6.24
C      -1.62       8.67       5.38
C      -1.42      11.62       5.45
O       3.52       6.33       8.33
O       3.69      13.27       8.60
O       1.47      13.27       9.03
O       1.28       6.35       8.69
