40

H       0.96      14.56       2.55
H       0.86      12.47       1.25
H       3.14      10.48       4.32
H       3.14      11.98       0.43
H       0.96       8.40      -2.22
H       0.86       8.32       0.24
H       3.14       7.86       1.08
H       0.96       7.35       5.50
H       0.86       9.52       4.34
C       2.18      10.22      -3.80
C       2.18       5.07       4.72
C       2.18      15.02       4.92
C       1.45      13.67       2.93
C       1.38      12.49       2.20
C       2.00      11.32       2.68
C       2.66      11.37       3.92
C       2.69      12.55       4.65
C       2.11      13.73       4.17
C       2.66      11.18      -0.14
C       2.69      11.23      -1.52
C       2.11      10.22      -2.30
C       1.45       9.18      -1.63
C       1.38       9.14      -0.25
C       2.00      10.14       0.53
C       2.66       7.77       2.05
C       2.69       6.54       2.71
C       2.11       6.37       3.97
C       1.45       7.47       4.54
C       1.38       8.69       3.88
C       2.00       8.86       2.63
Br       3.50      12.52       6.37
Br       3.50      12.74      -2.36
Br       3.50       5.07       1.82
N       1.96      10.11       1.94
O       3.18      15.77       4.66
O       3.18       9.63      -4.32
O       3.18       4.92       5.49
O       1.23      15.29       5.72
O       1.23       4.25       4.55
O       1.23      10.78      -4.43
