18

C      10.62       0.03       8.88
C       8.29       7.07       9.82
C       9.83       1.12       9.27
H       9.39      -1.20       7.43
C       9.26       2.19       9.45
C       8.69       3.42       9.52
C       8.24       4.56       9.48
N      11.45      -1.67       7.66
H       9.15       7.23      10.46
H       5.95       5.69       7.98
N       7.55       8.11       9.38
N       6.54       7.62       8.59
H      12.63       0.39       9.84
N      12.47      -1.17       8.41
C       6.65       6.29       8.55
C      11.99      -0.16       9.16
C      10.33      -0.97       7.93
C       7.76       5.86       9.32
