36

H       0.93      19.13       2.20
H       0.80      17.07       3.59
H       5.09      17.02       3.91
H       5.21      19.06       2.49
H       4.67      14.79       3.92
H       4.52      12.76       5.31
H       0.87      14.23       7.06
H       1.01      16.25       5.68
H       0.45      11.99       7.07
H       0.33       9.95       8.49
H       4.61       9.89       8.78
H       4.74      11.95       7.39
C       2.41       8.58       9.59
C       1.84      18.65       2.58
C       1.77      17.51       3.37
C       2.93      16.89       3.86
C       4.18      17.47       3.52
C       4.25      18.61       2.74
C       3.08      19.22       2.25
C       3.84      14.68       4.63
C       3.76      13.54       5.41
C       2.68      13.34       6.29
C       1.69      14.33       6.36
C       1.78      15.48       5.57
C       2.85      15.68       4.69
C       1.36      11.54       7.46
C       1.29      10.40       8.25
C       2.46       9.80       8.73
C       3.70      10.36       8.40
C       3.77      11.51       7.61
C       2.60      12.12       7.13
C       3.13      20.43       1.39
O       3.53       8.12       9.98
O       1.26       8.11       9.89
O       4.28      20.90       1.09
O       2.01      20.89       1.00
