18

O      11.88      16.59       6.25
O      16.31      19.80       5.07
O      14.04      16.91       6.90
O      15.90      17.64       4.98
O      14.10      23.96       1.81
O      11.83      23.82       1.58
C      13.72      20.29       4.17
S      11.54      19.05       4.85
C      13.01      17.20       6.22
S      14.51      21.59       3.38
C      12.96      23.42       2.02
N      15.55      18.82       5.01
C      14.13      19.14       4.89
C      11.89      21.46       3.27
C      13.06      18.38       5.34
C      12.98      22.21       2.84
C      12.32      20.36       4.04
H      10.86      21.73       3.03
