22

H       0.38       7.24       4.27
H      -1.17       8.61       2.94
H       0.84      12.20       4.20
H      -0.91      11.10       2.88
C       2.40       6.64       5.83
C       2.62      12.46       6.08
C       2.44       8.14       5.80
C       1.49       8.92       5.06
C       3.42       8.78       6.53
C       0.47       8.32       4.27
C      -0.39       9.09       3.53
C       2.59      10.98       5.91
C       3.49      10.19       6.59
C       1.59      10.35       5.09
C       0.72      11.12       4.26
C      -0.25      10.50       3.50
O       3.48       6.04       5.54
O       3.72      13.05       5.87
O       1.52      13.02       6.39
O       1.31       6.09       6.18
F       4.43      10.73       7.40
F       4.32       8.09       7.27
