26

C       8.97      10.87      18.85
C       9.25      11.96      17.88
C       9.84      11.61      16.66
C      10.09      12.57      15.69
H      10.11      10.57      16.49
C       9.75      13.91      15.91
H      10.58      12.28      14.76
C       9.16      14.26      17.14
C       8.92      13.30      18.13
H       8.85      15.29      17.33
H       8.45      13.59      19.07
C      10.00      14.93      14.88
C       9.93      14.61      13.51
H       9.67      13.59      13.22
C      10.14      15.57      12.53
H      10.05      15.32      11.47
O       8.78       9.72      18.32
C      10.43      16.89      12.90
H      10.76      18.25      14.53
O       8.97      11.06      20.11
C      10.53      17.23      14.26
H      10.40      16.53      16.28
C      10.31      16.26      15.23
O      10.67      17.60      10.64
C      10.57      17.95      11.87
O      10.54      19.17      12.26
