13

N       7.24       4.89       5.90
C       6.72       6.32       1.90
C       6.24       4.41       5.13
H       5.20       4.44       3.24
C       6.89       5.80       3.30
C       7.96       6.27       4.08
O       5.55       6.59       1.49
H       8.67       6.99       3.67
C       8.08       5.80       5.38
O       7.77       6.38       1.19
H       8.87       6.16       6.04
H       5.62       3.64       5.59
C       6.02       4.85       3.83
