30

C       8.17       3.18       9.72
C       8.18       2.83       8.36
C       9.37       2.30       7.79
C       7.02       3.02       7.53
C       7.06       2.68       6.20
C       8.24       2.13       5.60
C       9.40       1.95       6.41
C       8.27       1.72       4.26
C       9.32       3.03      10.50
H      11.48       0.59       4.04
H      11.38       2.39      10.58
H      12.64       0.78       6.24
H      12.59       1.39       8.64
H       7.39       1.81       3.63
H       6.18       2.83       5.57
H       6.12       3.43       7.97
H       7.27       3.60      10.18
C       9.47       0.60       2.34
O      10.58       0.20       1.90
O       8.35       0.51       1.70
O       8.18       3.88      12.37
O      10.43       3.64      12.52
C      10.49       2.50       9.95
C       9.30       3.54      11.90
C      10.54       2.11       8.60
C      10.59       1.40       5.84
C      11.74       1.22       6.68
C      11.71       1.55       8.00
C      10.59       1.03       4.50
C       9.44       1.16       3.71
