34

H       7.14       4.05      12.24
H       8.90       4.81      18.41
H       3.47       6.15      12.95
H       4.63       4.60      18.90
H       3.68       5.60      15.40
H       4.92       5.24      21.31
H       6.53       1.90      16.18
H       6.43       1.26      14.53
H       7.93       1.08      15.47
H       8.22       2.89      13.79
H       8.27       3.56      15.43
C       8.16       5.29      20.39
C       6.51       4.03      14.29
C       6.38       4.39      12.95
C       5.54       4.57      15.18
C       5.34       5.19      12.46
C       4.31       5.58      13.33
C       4.42       5.26      14.68
C       7.04       5.89      22.66
C       5.37       5.63      11.03
C       7.04       5.45      21.22
C       5.78       5.16      20.65
C       5.62       4.79      19.33
C       6.75       4.70      18.51
C       8.03       4.91      19.05
C       7.61       3.09      14.69
C       7.09       1.75      15.25
Br       9.97       5.56      20.95
N       6.73       4.45      17.11
N       5.59       4.62      16.59
O       8.12       6.28      23.20
O       5.90       5.86      23.23
O       6.51       5.60      10.47
O       4.28       6.01      10.49
