16

Br      17.86       8.41       2.76
Br      18.00       2.44       5.53
H      18.02       5.67       1.67
H      17.84       5.19       6.62
O      19.24       2.63       2.17
O      16.96       2.66       2.02
O      16.65       8.16       6.23
C      18.08       3.08       2.44
C      18.02       4.29       3.33
C      17.99       5.56       2.76
C      17.91       6.69       3.57
C      17.86       6.57       4.96
C      17.88       5.30       5.54
C      17.97       4.17       4.73
C      17.80       7.78       5.85
O      18.93       8.29       6.14
