16

H      11.52       3.70      29.27
H      12.00      -0.96      27.65
O       8.82       0.79      26.27
O      13.51       3.73      30.62
O      14.70       1.79      30.62
C       9.84       0.14      26.64
C      10.80       0.81      27.58
C      12.72       1.91      29.33
C      10.67       2.14      28.04
C      12.86       0.59      28.88
C      11.63       2.67      28.91
C      13.72       2.52      30.26
Cl       9.39       3.21      27.61
C      11.91       0.06      28.02
O      10.13      -1.06      26.29
H      13.71      -0.00      29.21
