34

H       9.18      11.69       0.31
H       9.88      13.28       2.73
H      11.05      13.29      -2.48
H       6.72      14.65      -3.08
H       7.62      12.96       3.64
H       6.75      12.08       0.81
H       9.56      15.90      -3.40
H       7.34      14.67      -0.72
H       8.82      11.49      -1.72
H       9.45      11.05       1.93
H       8.38      16.05      -0.99
H       7.07      16.38      -2.82
H       7.25      16.59       2.48
H       6.96      10.99       2.20
H       7.42      12.32      -4.08
H       9.30      16.52       0.86
C       9.00      12.25      -2.48
C       9.09      13.21       1.96
C       9.41      14.23      -1.30
C       7.50      15.38      -2.83
C       6.98      14.40       2.17
C       7.38      11.86       1.68
C       9.14      13.88      -3.71
C       8.89      15.64       1.36
C       7.73      15.68       2.15
C       8.76      15.19      -3.61
C       7.62      13.12       2.55
C       8.90      11.80       1.36
C       9.97      13.45      -2.48
C       8.10      15.07      -1.40
C       9.33      14.36       1.04
C       8.31      12.69      -3.57
N       9.99      14.04      -0.15
N       6.14      14.74       1.31
