40

C       4.09      11.15       3.10
C       1.91      15.66       4.43
C       7.44      12.11       5.54
C       5.63      16.93       6.05
O      10.99      14.74       7.91
O      10.12      16.82       8.29
H      -0.03      14.65       3.00
H       1.72      10.82       2.06
H       7.90      17.18       7.32
H       9.48      13.21       6.74
O      -0.58      11.12       1.25
O      -1.46      13.18       1.67
H       5.33      12.58       2.69
H       2.71      14.88       6.01
H       5.64      12.00       6.23
H       5.42      16.40       4.20
C      10.08      15.63       7.83
C      -0.54      12.30       1.73
O       5.33      11.60       2.79
O       3.88       9.97       3.28
O       2.36      15.74       5.71
O       1.45      16.63       3.87
O       6.30      11.42       5.81
O       8.39      11.56       5.01
O       5.09      17.09       4.81
O       5.34      17.68       6.96
C       0.71      12.69       2.45
C       0.81      13.94       3.06
C       1.95      14.31       3.77
C       3.07      13.43       3.80
C       2.98      12.17       3.15
C       1.79      11.80       2.52
C       4.26      13.80       4.49
C       5.28      14.12       5.07
C       6.47      14.50       5.75
C       6.64      15.83       6.23
C       7.80      16.17       6.93
C       8.83      15.24       7.11
C       8.68      13.94       6.61
C       7.50      13.55       5.98
