26

C      10.28       5.41      11.40
C      10.28       6.45      10.35
C       9.43       7.57      10.46
C      11.12       6.34       9.23
C       9.44       8.55       9.47
C      11.12       7.32       8.24
C      10.28       8.45       8.35
C      10.28       9.48       7.31
C       9.16      10.04       6.65
C      11.39      10.14       6.75
H       8.79       7.66      11.33
C       7.71       9.70       6.79
H      11.76       5.46       9.15
C      12.84      10.00       7.09
H       8.80       9.43       9.58
H      11.75       7.21       7.37
N       9.60      10.95       5.76
H       7.11      10.25       6.06
N      10.96      11.03       5.83
H      13.45      10.73       6.54
H       7.55       8.62       6.61
H      13.00      10.18       8.16
O       9.42       5.50      12.34
H       7.33       9.92       7.79
O      11.14       4.46      11.30
H      13.23       9.00       6.87
