12

C       9.25      10.04       4.77
C       9.39       9.87       6.10
C       9.55       9.79       7.32
C       9.72       9.67       8.64
C       9.87       9.52       9.85
O      11.29       8.99      11.58
C      10.10       9.10      11.21
O       9.04       8.82      11.89
C       8.99      10.75       2.23
O       7.82      10.94       1.81
O      10.09      11.01       1.61
C       9.14      10.25       3.57
