18

N       2.05       9.67      12.35
C      -0.27       7.99      10.34
O      -0.92       5.97       8.54
C      -1.24      10.52       9.72
O      -3.04       6.78       8.50
C      -1.79      11.89       9.41
H       0.27      11.29      11.06
N       2.86      10.30      12.85
C      -1.30       8.13       9.41
H      -2.65       9.52       8.42
O      -2.90      11.94       8.80
C      -0.17      10.40      10.62
H       0.11       7.01      10.60
N       1.29       8.81      11.89
C       0.28       9.12      10.96
C      -1.82       9.40       9.12
O      -1.09      12.89       9.79
C      -1.80       6.88       8.76
