16

C       5.48       4.86       2.92
C       6.55       5.19       0.67
C       5.37       4.89      -1.41
C       5.41       4.88       1.41
C       5.30       4.90      -2.92
C       4.23       4.57       0.73
C       6.55       5.20      -0.73
C       4.23       4.57      -0.67
Cl       2.78       4.21       1.58
Cl       8.00       5.56      -1.58
O       5.56       6.00       3.48
O       5.22       3.77      -3.48
O       5.45       3.72       3.46
O       5.33       6.04      -3.46
F       3.08       4.28      -1.33
F       7.70       5.48       1.33
