34

O       4.45       1.30      10.53
O       6.67       1.09      10.75
O       5.12       7.83      17.11
O       2.87       7.83      17.05
H       7.88       1.76      11.89
H       8.61       2.53      13.25
H       8.24       4.12      15.08
H       8.62       4.55      13.52
H       6.41       7.32      15.99
H       7.33       6.19      14.92
H       1.69       6.57      16.55
H       1.11       5.03      16.12
H       1.46       3.16      14.37
H       0.96       4.71      14.09
H       3.16       2.33      11.13
H       2.24       3.39      12.28
C       5.54       1.65      11.11
C       4.02       7.35      16.64
C       5.33       5.88      15.08
C       2.89       5.56      15.27
C       2.94       4.59      14.27
C       4.18       4.18      13.69
C       4.25       3.26      12.56
C       6.69       3.12      12.83
C       6.65       4.16      13.76
C       5.40       4.72      14.18
C       4.07       6.28      15.65
C       5.50       2.68      12.16
N       7.93       2.58      12.50
N       7.91       4.64      14.25
N       6.45       6.58      15.30
N       1.64       5.85      15.83
N       1.68       4.02      13.87
N       3.11       3.01      11.89
