32

H      10.04       7.76      13.82
H       6.14       7.69      15.50
H      10.00       6.22      18.23
H      10.10       6.01      15.75
H       6.38       5.59      11.30
H       6.24       5.74      13.79
H      11.07       8.47      11.96
H      10.17       8.59      10.42
H      11.18       7.19      10.72
H       5.03       8.52      17.30
H       6.01       9.05      18.69
H       5.15       7.52      18.77
C       8.31       6.33       9.70
C       8.05       7.19      19.74
C       8.29       6.57      11.17
C       8.02       7.07      18.25
C       9.34       7.21      11.87
C       9.24       7.26      13.27
C       6.91       7.49      17.49
C       6.98       7.35      16.10
C       9.15       6.54      17.61
C       9.21       6.43      16.23
C       7.18       6.07      11.88
C       7.10       6.16      13.26
C       8.15       6.74      13.98
C       8.11       6.83      15.45
C      10.50       7.90      11.21
C       5.71       8.18      18.09
O       9.44       6.42       9.11
O       9.17       7.45      20.29
O       6.94       7.05      20.36
O       7.21       6.00       9.13
