26

H       4.05       3.62       9.02
N       4.03      -0.73       6.93
H       7.11       0.61       4.86
N       7.70       4.14       6.38
H       9.17       4.40       4.95
N       9.64       1.82       2.69
H       1.96       2.73       8.45
H       6.07      -1.82       6.32
O       2.18       1.80       8.74
O       6.23      -0.83       6.23
O       6.38       4.87       8.69
H       5.63       5.31       9.18
H       2.09      -0.58       7.72
C       3.17       1.26       7.99
C       8.44       3.71       5.36
C       8.26       2.43       4.79
C       7.28       1.58       5.31
C       6.49       2.02       6.40
C       6.74       3.33       6.92
C       5.37       1.27       6.90
C       4.40       1.93       7.70
C       4.72       3.19       8.28
C       5.92       3.81       8.00
C       5.19      -0.12       6.67
C       3.03      -0.04       7.55
C       9.02       2.07       3.64
