16

C      22.33       9.97       2.64
C      24.76       8.19       5.88
C      23.16       9.36       3.76
O      22.67      11.12       2.21
O      21.34       9.30       2.21
C      24.29      10.04       4.30
C      22.85       8.08       4.30
C      23.63       7.51       5.34
Cl      21.53       7.14       3.75
Cl      23.13       5.96       5.89
C      25.07       9.47       5.34
Cl      26.39      10.41       5.89
Cl      24.79      11.59       3.75
O      25.25       6.44       7.43
O      26.58       8.25       7.43
C      25.59       7.58       7.00
