44

O       2.95      18.61       1.80
O       6.44      16.05       3.48
O       5.75      18.91      -3.49
H       5.73      17.79       5.33
O       9.28      16.42      -1.80
H       1.94      16.78       3.52
H       0.94      16.56       5.76
H       8.02      16.12       0.94
H       4.21      18.91      -0.93
H      10.24      18.26      -3.63
H      11.19      18.30      -5.90
H       6.43      17.04      -5.26
C       5.04      17.56       7.83
C       4.14      17.35       6.69
C       4.68      17.51       5.41
C       3.92      17.29       4.27
C       2.56      16.95       4.40
C       1.99      16.83       5.66
C       2.76      16.98       6.84
C       4.02      18.02       1.86
C       5.04      17.84       0.78
C       6.09      17.07       1.29
C       5.78      16.73       2.71
C       7.21      16.72       0.54
C       7.20      17.19      -0.77
C       6.14      17.96      -1.28
C       5.03      18.31      -0.52
C       6.43      18.26      -2.71
C       8.21      17.00      -1.85
C       8.26      17.65      -4.29
C       9.61      18.00      -4.47
C      10.15      18.02      -5.75
C       9.37      17.73      -6.90
C       7.99      17.38      -6.69
C       7.48      17.33      -5.39
C       7.07      17.04      -7.79
N       4.54      17.35       3.00
N       7.67      17.65      -3.00
O       6.23      18.00       7.66
O       4.61      17.27       9.02
O       2.17      16.77       8.03
O       5.89      16.64      -7.55
O       7.49      17.18      -9.01
O       9.94      17.81      -8.11
