31

O       0.66      -0.03       4.24
C      -2.93       0.12       6.49
H      -6.08      -0.58       3.07
C      -1.78       0.03       5.70
H      -3.73      -0.58       3.91
C      -0.53       0.11       6.31
H      -5.26       0.66       7.75
C      -0.47       0.33       7.69
H      -7.56       0.60       6.74
C      -1.67       0.42       8.40
H      -1.82      -0.10       4.62
C      -0.81       1.66      11.87
H       0.50       0.40       8.18
C      -0.76       1.50      10.49
H      -0.15       2.36      12.38
C      -1.67       0.63       9.86
H      -0.05       2.09       9.90
C      -2.59      -0.04      10.67
N      -1.68       0.98      12.64
H      -3.33      -0.71      10.22
C      -2.55       0.14      12.05
H      -3.22      -0.39      12.72
C       0.73      -0.03       5.51
C      -5.85      -0.32       4.10
C      -4.54      -0.30       4.58
N      -6.90      -0.00       4.88
C      -4.30       0.06       5.91
N      -2.87       0.30       7.82
O       1.85      -0.13       6.13
C      -5.40       0.39       6.71
C      -6.68       0.35       6.16
