56

O      -2.95       7.05       9.04
H       3.50      16.85      10.55
O       3.27      18.73       8.87
H      -0.40      18.62      10.20
O      -0.04      15.04      16.08
O      -0.08      14.93      12.72
H       1.01      17.00      20.00
O      -0.65      11.44      12.96
H       1.58      16.11      17.73
H      -2.59      15.29      17.01
O      -4.68       8.52       8.98
H      -3.14      16.12      19.28
H      -1.36      16.82      11.63
H      -3.14      12.01      11.95
H       0.19       9.25      11.97
H      -4.33      10.54      10.34
H      -1.05       7.78      10.38
H      -2.09      12.17      14.28
H      -1.72      13.24      12.89
H       1.47      14.59      14.07
H       1.24      13.31      12.84
H       2.57      15.07      12.03
H      -1.64      14.92      14.75
H      -1.60      13.68      16.04
H       1.14      11.59      14.71
H      -0.08      11.77      15.99
H       1.30      12.87      15.95
C       2.17      18.95       9.46
C       1.62      17.86      10.32
C       2.44      16.84      10.81
C       0.24      17.85      10.61
C      -1.46      16.98      21.17
C      -1.10      16.59      19.79
C       0.23      16.62      19.33
C       0.55      16.13      18.08
C      -0.45      15.60      17.25
C      -1.80      15.64      17.66
C      -2.10      16.12      18.93
C      -0.30      16.84      11.40
C      -1.39      10.72      12.06
C      -2.67      11.09      11.60
C      -0.80       9.53      11.60
C      -3.51       8.14       9.35
C      -2.76       9.07      10.25
C      -3.33      10.27      10.70
C      -1.48       8.72      10.71
C      -1.28      12.54      13.62
C      -0.22      13.28      14.45
C       0.73      14.03      13.50
C       0.54      15.85      11.93
C       1.91      15.84      11.63
C      -0.98      14.26      15.34
C       0.59      12.32      15.32
O       1.47      20.03       9.40
O      -2.64      16.88      21.58
O      -0.53      17.47      21.96
