32

C       9.50      14.09      12.44
C      10.54       7.57      18.04
H      10.61      12.93      14.46
H       9.44       8.71      15.99
H      12.45      11.88      18.31
H      11.13      12.66      16.38
H       6.75      10.26      12.87
H       7.97       9.53      14.87
O       7.38      13.63      10.93
O      12.10       8.36      20.03
O      13.20      10.35      20.02
O       6.18      11.70      11.00
H       7.99      15.00      13.19
H       9.40       8.16      19.47
C       7.10      12.49      11.42
C      12.37       9.51      19.53
O       8.84      15.24      12.79
O      10.53      14.15      11.79
O       9.60       7.33      19.01
O      11.04       6.64      17.44
C       7.90      12.06      12.60
C      11.61       9.91      18.32
C       8.99      12.82      13.06
C       9.73      12.36      14.16
C      10.75       9.01      17.65
C      10.06       9.44      16.52
C      11.75      11.21      17.81
C      11.02      11.63      16.71
C       7.57      10.86      13.26
C       8.28      10.44      14.37
C       9.38      11.18      14.85
C      10.16      10.75      16.03
