18

H       6.77      10.78       9.02
H       2.45      13.14       8.29
O       5.59      15.47       8.97
O       5.87       8.51       8.68
H       6.76      14.30       9.16
H       2.47       9.62       8.14
O       3.64       8.44       8.33
C       4.48      14.84       8.76
O       3.36      15.41       8.63
C       4.75       9.08       8.54
C       4.57      13.36       8.71
C       4.66      10.56       8.60
C       5.80      12.68       8.93
C       3.43      11.24       8.38
C       5.82      11.29       8.87
C       3.40      12.63       8.44
O       6.96      13.33       9.20
O       2.26      10.59       8.11
