24

H      21.05      28.01      14.35
H      21.76      28.12      15.91
O      22.55      27.06      11.01
H      26.51      24.03      14.34
H      26.40      24.74      12.79
H      23.50      25.99      17.72
O      20.99      27.67      12.53
H      21.96      26.48      17.11
H      23.84      25.74      10.97
C      22.12      27.12      12.23
H      24.77      24.43      11.58
C      25.33      24.77      16.46
O      26.21      23.87      16.16
O      25.15      25.17      17.68
C      22.93      26.52      13.30
C      24.52      25.37      15.39
C      22.62      26.76      14.67
C      24.85      25.14      14.02
C      23.39      26.18      15.70
C      24.05      25.69      12.99
N      21.54      27.54      15.10
N      25.91      24.36      13.59
N      22.98      26.48      17.00
N      24.47      25.40      11.70
