18

N      15.13       6.28      19.55
H      14.45       5.91      18.90
C      18.25       5.26      21.19
H      15.12       7.25      19.82
C      16.33       4.14      19.47
H      19.25       3.35      21.11
H      17.08       7.05      21.12
H      17.53       2.37      19.57
O      14.35       4.17      18.18
O      15.62       2.29      18.18
C      16.18       5.49      19.91
C      18.40       3.93      20.77
C      17.17       6.02      20.77
C      15.38       3.49      18.56
C      17.45       3.39      19.92
O      20.23       5.14      22.48
C      19.25       5.88      22.12
O      19.05       7.09      22.47
