30

H       9.56       8.12       2.50
C       7.03       8.87       3.15
H      11.22       7.04       3.91
C       4.76       9.46       2.56
H       8.47       9.60       1.68
C       9.30       7.89       3.53
H       5.26       8.34       4.32
N       5.15      10.07       1.43
C      10.24       7.27       4.34
H      15.17       4.83       6.52
H       3.68       9.46       2.76
C      12.11       5.75       6.11
C       5.65       8.85       3.43
H      14.27       4.80       4.98
C       7.43       9.53       1.98
C      13.04       4.93       6.79
C       7.73       7.90       5.37
C      14.26       4.46       6.02
H      14.32       3.36       6.05
O      10.53       6.26       7.84
H      12.32       5.90       5.05
C       6.46      10.10       1.15
H       6.73      10.59       0.22
C      10.91       6.29       6.62
O      12.96       4.55       8.01
C       9.95       6.96       5.68
C       8.02       8.22       4.03
H       6.76       8.15       5.79
C       8.68       7.29       6.17
H       8.45       7.06       7.21
