30

H      17.12       7.05      14.50
H      17.33       7.01      12.01
H      17.06      11.36      14.43
H      17.56       7.20       5.17
O      17.55      10.47       2.91
H      17.52      11.56       7.59
H      17.56      11.51       5.09
O      17.68       8.19       2.93
O      16.87      10.36      16.66
O      16.95       8.09      16.68
O      17.29      11.58      11.85
O      17.50       6.99       7.76
H      17.38      11.39      10.89
H      17.48       7.18       8.72
C      17.60       9.34       3.50
C      16.95       9.22      16.09
C      17.07       9.20      14.60
C      17.15       7.97      13.93
C      17.27       7.95      12.55
C      17.32       9.16      11.82
C      17.25      10.40      12.51
C      17.12      10.41      13.90
C      17.41       9.20      10.41
C      17.47       9.37       9.20
C      17.51       9.41       7.79
C      17.52       8.17       7.09
C      17.55       8.15       5.70
C      17.56       9.36       4.99
C      17.55      10.59       5.67
C      17.52      10.61       7.05
