22

H      11.72      10.07      26.36
H      11.71       7.54      29.68
H      21.20      10.39      26.68
F      14.34      10.25      26.15
F      14.33       7.32      29.88
F      18.58      10.54      26.42
C      12.30       9.51      27.10
C      13.69       9.52      27.08
C      14.44       8.79      28.02
C      13.69       8.06      28.95
C      12.30       8.09      28.94
C      15.85       8.80      28.03
C      17.07       8.82      28.05
C      18.47       8.85      28.08
C      19.23       9.71      27.26
C      20.61       9.72      27.30
C      20.61       8.04      28.93
C      19.22       8.01      28.92
H      21.20       7.39      29.57
F      18.58       7.16      29.74
N      11.64       8.81      28.03
N      21.27       8.89      28.13
