27

C      13.06      19.07       1.22
C      14.26      17.49       2.61
C      13.80      18.16       3.73
H      12.77      19.40       0.22
O      13.71      17.54      -0.98
C      12.62      19.75       2.35
H      14.88      16.60       2.69
C      12.99      19.31       3.65
O      15.22      16.34       0.22
H      14.06      17.79       4.72
C      12.60      20.04       4.87
H      10.59      20.52       4.26
O      12.47      22.17       9.41
C      11.34      20.64       5.04
H      14.54      19.74       5.80
O      10.77      23.21       8.30
C      13.54      20.17       5.91
O      11.85      20.88       2.23
H      10.08      21.86       6.29
H      13.97      20.99       7.87
C      11.04      21.38       6.18
H      11.78      21.10       1.28
C      13.24      20.88       7.07
C      11.99      21.51       7.20
C      11.72      22.36       8.40
C      14.31      17.22       0.10
C      13.88      17.94       1.34
