45

C       9.31       8.75       3.89
C       9.05       7.06      -2.49
C       8.39       6.48      -3.56
C       7.43       8.61      -4.15
C       8.11       9.20      -3.08
C       8.88       8.43      -2.19
C       9.60       8.34       0.19
C       9.36       9.03      -0.95
C       7.52       7.23      -4.39
H       6.35       4.50      -4.56
H      10.56      11.81       3.14
H       8.54       5.42      -3.77
H       6.77       9.22      -4.77
H       9.37      10.12      -0.92
H       9.06       7.15       2.46
H       9.71       6.45      -1.87
H       9.48       7.25       0.17
H      10.68      10.81       0.89
H       7.98      10.26      -2.89
C       8.24       6.78       4.78
C       7.67       6.34       6.11
H       6.29       8.03      -7.05
N       5.44       4.99      -6.40
N       5.41       6.11      -7.19
H       9.06       9.39       7.04
N       8.55      11.42       7.35
H       9.12      12.97       4.58
N       8.58      12.54       6.58
O       8.83       8.07       4.99
H       9.01       6.07       4.43
H       7.46       6.85       4.01
H       6.90       7.05       6.46
H       7.20       5.35       6.01
H       8.46       6.28       6.87
C       9.04      12.21       5.36
C       9.32      10.83       5.31
C       6.21       5.25      -5.33
C       6.71       6.56      -5.40
C       6.16       7.05      -6.59
C       8.99      10.39       6.61
C       9.66      10.11       4.09
C      10.21      10.79       2.99
C      10.28      10.23       1.72
C       9.81       8.92       1.50
C       9.39       8.17       2.62
