40

C       2.78       6.95       2.85
H       3.58       6.33       2.44
C       1.70       9.13       3.06
H       1.71      10.20       2.83
C       3.78       8.92       1.70
H      -0.03       6.76       4.78
O       3.64      10.14       1.31
C       1.76       6.39       3.62
H       0.68      14.43       4.92
O       4.80       8.23       1.36
C       2.73       8.32       2.56
H       1.15      10.35       6.24
O      -0.32       9.29       4.39
C      -0.10      10.66       4.53
H      -0.78      13.65       3.08
O       1.82       5.04       3.86
C       0.73       7.19       4.13
H       1.66      12.78       6.53
O      -1.45      11.75       1.39
C       0.72       8.56       3.85
O       0.92       3.97       7.90
C       0.47      13.37       4.82
C       0.64       4.41       4.23
H      -1.02       3.05       6.84
O       2.35       5.01       6.55
C       0.73      11.09       5.57
H      -0.02       4.44       2.19
O      -2.53      10.34       2.72
C      -0.37      12.93       3.79
H      -2.66       2.54       5.04
C       1.01      12.45       5.71
H      -2.16       3.24       2.68
C       1.27       4.36       6.72
C      -1.61      11.18       2.54
C       0.37       4.04       5.56
C      -0.83       3.35       5.82
C      -0.27       4.13       3.20
C      -1.74       3.07       4.80
C      -1.46       3.46       3.49
C      -0.68      11.57       3.64
