24

O      -0.89      -3.39      20.15
H      -5.05      -5.13      16.57
O       0.68      -9.66      20.90
H      -4.14      -3.18      17.89
O       0.95     -11.44      19.49
H      -1.21      -5.80      19.57
H      -0.68      -7.88      19.81
H      -1.01     -11.76      18.03
H      -2.87     -10.86      16.57
C      -4.21      -5.25      17.25
C      -3.71      -4.18      17.98
C      -2.60      -4.37      18.81
C      -2.07      -5.65      18.92
C      -2.62      -6.70      18.18
C      -2.14      -8.08      18.22
C      -1.14      -8.54      19.08
C      -0.71      -9.86      19.01
C      -1.34     -10.72      18.09
C      -2.35     -10.22      17.29
C      -1.95      -3.20      19.51
C       0.41     -10.37      19.88
N      -3.67      -6.49      17.32
N      -2.74      -8.93      17.32
O      -2.52      -2.06      19.36
