51

C       9.36       7.08       6.21
C       8.90       8.09       5.22
O       0.70       7.47       7.40
C       9.76       8.50       4.19
H      10.78       8.13       4.17
O       2.16       6.09       6.45
C       9.29       9.35       3.19
H       9.96       9.65       2.38
O      10.57       6.68       6.16
C       7.96       9.81       3.21
H       6.09       9.78       4.29
H       6.92       8.25       6.04
C       7.11       9.43       4.26
C       7.59       8.57       5.24
H       7.78      12.73      -0.81
C       6.36      11.20       1.83
H       9.28      13.32      -2.70
O       9.91      14.37      -4.84
C       4.17      11.60       2.17
H       6.03      15.38      -4.62
C       5.24      12.58       0.44
H       4.55      14.82      -2.76
C       6.07      13.73      -1.64
H       3.46       7.14       4.55
C       7.42      13.32      -1.63
H       4.08       8.92       2.96
C       8.25      13.66      -2.69
H       1.31      11.61       4.88
C       7.77      14.40      -3.79
H       0.68       9.80       6.48
C       6.43      14.82      -3.78
C       5.60      14.50      -2.72
N       7.57      10.64       2.15
C       8.67      14.63      -4.93
N       5.28      10.95       2.57
C       1.62       7.28       6.55
N       4.09      12.45       1.13
C       2.03       8.35       5.62
N       6.41      11.99       0.73
C       2.99       8.12       4.63
N       5.15      13.41      -0.65
C       3.34       9.12       3.73
N       3.02      11.40       2.89
C       2.74      10.39       3.81
C       1.78      10.63       4.81
C       1.42       9.62       5.70
H       8.30      10.88       1.48
H       4.20      13.77      -0.78
O       8.51       6.64       7.06
H       2.28      12.05       2.65
O       8.21      15.08      -6.07
