28

O      27.45       8.27      12.10
O      27.98       9.32      10.19
C      27.71       9.31      11.43
C      27.71      20.58      17.63
O      27.44      20.57      18.87
O      27.98      21.62      16.96
C      27.71      19.25      16.90
C      27.47      18.02      17.59
C      27.47      16.79      16.90
C      27.71      16.72      15.51
C      27.95      17.94      14.82
C      27.95      19.17      15.49
C      27.71      15.48      14.83
C      27.71      14.41      14.24
C      27.71      13.17      13.55
C      27.47      11.95      14.24
C      27.47      10.71      13.57
C      27.71      10.64      12.16
C      27.95      11.87      11.47
C      27.95      13.09      12.16
Br      27.16      17.90      19.46
Br      28.27      20.69      14.38
Br      28.28      17.81      12.97
Br      27.15      15.16      17.79
Br      27.15      12.07      16.09
Br      28.27      14.73      11.27
Br      28.26      11.99       9.60
Br      27.15       9.20      14.68
