12

C       3.52       8.17       8.40
C       3.66      12.64      12.93
C       3.54       9.03       9.27
C       3.51       7.18       7.35
C       3.57       9.97      10.23
C       3.61      10.84      11.11
C       3.64      11.78      12.06
C       3.67      13.63      13.98
O       2.37       6.80       6.94
O       4.81      14.01      14.40
O       4.65       6.80       6.93
O       2.53      14.01      14.41
