14

C       4.21      14.10       7.95
H       5.88      13.61       6.71
H       5.48      12.73       9.06
C       4.95      14.16       6.81
O       3.42      15.59       5.73
C       4.58      13.35       9.12
O       5.19      11.66      11.28
O       3.88      12.92      12.63
C       4.59      15.06       5.68
C       4.35      12.60      11.47
H       3.02      14.01      10.42
C       3.90      13.38      10.29
H       3.29      14.69       7.99
O       5.47      15.27       4.79
