20

O      14.31       7.50       0.47
O      11.54       0.98       1.12
H      13.47       2.52       1.75
H      11.62       6.64      -2.08
O      10.18       1.95      -0.42
H      10.05       4.69      -1.77
H      12.61       5.65      -3.19
H      11.05       3.71      -2.88
C      11.23       1.92       0.29
C      14.71       6.58      -0.30
C      11.97       4.00      -0.89
C      12.16       3.06       0.12
C      13.28       3.24       0.96
C      14.12       4.34       0.79
C      13.92       5.31      -0.22
C      12.84       5.08      -1.05
C      12.07       5.65      -2.24
C      11.08       4.42      -2.04
Br      15.59       4.54       1.99
O      15.67       6.66      -1.15
