28

C       7.86       3.76       6.94
N       5.16       6.54       4.02
H       4.39       4.76       5.59
N      10.26       4.62       5.56
N       4.27       3.04       7.54
H       8.82       3.42       7.34
O       6.54       8.20       2.48
H       4.48       6.55       4.76
H       5.19       7.38       3.44
O       7.98       2.34       9.34
H       9.73       6.27       3.52
O       8.60       7.51       1.81
O       5.98       1.40       8.84
H      10.38       4.45       6.55
H      11.03       5.17       5.19
H       3.43       3.14       6.99
H       4.38       2.15       8.03
C       7.58       7.44       2.59
C       7.82       4.64       5.85
C       6.52       5.08       5.40
C       6.42       6.07       4.36
C       8.86       5.93       4.08
C       9.00       5.10       5.17
C       6.91       2.26       8.64
C       7.59       6.45       3.69
C       6.72       3.23       7.53
C       5.38       4.51       5.98
C       5.43       3.57       7.01
