25

C       6.69       4.28       2.29
H       3.43       7.44       1.27
C       7.76       5.04       1.78
H       5.75       6.80       1.93
C       9.08       4.75       2.13
C       8.55       1.86       4.52
H       4.46       2.68       1.85
C      10.16       5.56       1.48
H       2.19       3.51       1.19
H      10.38       3.50       3.33
N       2.72       5.50       1.21
H       6.18       2.59       3.54
O      11.39       5.24       1.64
H       7.58       5.86       1.09
O       9.77       6.53       0.76
C       3.71       6.40       1.41
O       9.49       2.03       5.37
C       5.00       6.03       1.77
O       7.80       0.83       4.48
C       5.31       4.67       1.94
C       4.27       3.75       1.74
C       3.01       4.20       1.38
C       9.35       3.71       3.03
C       8.30       2.94       3.52
C       6.98       3.20       3.13
