22

C       4.66       3.67      19.37
H       4.59       3.89      21.52
H       7.07       3.71      21.80
H       9.32       3.24      20.79
H       9.70       2.80      16.54
C       5.25       3.76      20.66
H       4.98       3.42      17.28
C       6.61       3.65      20.81
C       7.45       3.42      19.68
C       8.85       3.22      19.81
C       9.63       2.97      18.69
C       9.05       2.96      17.40
C       7.70       3.15      17.25
C       6.86       3.37      18.38
C       5.45       3.50      18.26
H       7.24       3.13      16.25
O       2.69       3.54      18.05
O       2.48       3.71      20.31
O      11.79       2.62      17.78
O      11.57       2.72      20.04
C       3.16       3.65      19.23
C      11.10       2.75      18.85
