15

H       3.06      -2.51      10.81
N       2.85      -2.26      12.86
H       3.96       2.31      11.09
H       1.62       1.79      10.43
N       2.48       0.06      11.35
C       2.24      -2.35      11.52
H       1.20       1.50      12.15
N       3.75       1.76      13.10
C       1.51      -1.04      11.18
H       1.09      -1.07      10.17
C       2.00       1.45      11.40
H       0.71      -0.87      11.90
H       1.54      -3.19      11.44
C       3.17       2.32      11.85
H       2.83       3.35      12.01
