24

H       4.28       0.03      18.48
H       2.88       3.86      21.35
H       3.41       4.24      18.94
H       2.96      -1.71      19.44
H       1.83      -1.29      20.78
H       3.12      -2.50      21.05
C       3.19       3.03      20.71
C       3.47       3.24      19.37
C       3.86       2.16      18.55
C       3.26       1.74      21.28
C       2.90       1.49      22.62
C       4.20       2.37      17.20
C       2.55       1.25      23.76
C       5.14       2.90      14.79
C       1.90       0.87      24.98
C       4.53       2.56      16.03
C       3.95       0.86      19.11
C       3.66       0.65      20.45
C       2.86      -1.57      20.53
O       2.15      -0.29      25.46
O       1.05       1.70      25.47
O       5.99       2.07      14.30
O       4.85       4.04      14.28
O       3.77      -0.58      21.03
