27

H      12.98      -0.84       5.92
H      11.61      -3.75       2.18
H      14.85      -2.92       3.35
H      13.52      -2.11       1.64
H      11.74      -2.05       6.17
C      12.39      -1.60       5.40
C      11.54      -0.98       4.26
C      14.20      -2.11       3.72
C      12.45      -3.81       4.20
C      13.31      -2.70       4.84
O      10.12      -1.86       1.22
O      11.11       0.15       1.63
H      10.47      -1.04       4.50
H      11.78       0.08       4.11
H      13.53      -0.51       2.41
H      13.13      -4.56       3.76
H      11.88      -4.32       4.99
H      10.45      -3.34       3.44
H      14.62      -0.35       4.49
C      11.81      -1.73       2.93
C      13.30      -1.58       2.58
C      11.50      -3.22       3.13
O      14.04      -2.90       7.12
O      14.98      -4.25       5.55
O      15.13      -1.13       4.21
C      14.18      -3.32       5.92
C      10.95      -1.11       1.84
