24

C      10.53       1.58      10.84
C      10.22       0.24      11.01
C      10.07      -0.32      12.29
C      10.71       2.44      11.95
H      10.57       1.99       9.83
H      10.04      -0.37      10.13
C      10.70       1.84      13.22
C      10.39       0.49      13.39
C       9.18      -2.40      13.59
H      10.33       0.09      14.40
C      10.54       4.88      12.78
H      10.88       2.45      14.11
H       8.96      -2.26      10.32
H      10.25       4.25       9.57
C       8.98      -2.45      11.39
C      10.32       4.60      10.60
N       8.53      -3.54      13.24
N      10.13       6.04      12.24
H       9.36      -2.18      14.63
N       8.41      -3.56      11.88
H      10.70       4.80      13.85
N      10.00       5.87      10.89
C       9.49      -1.66      12.43
C      10.66       3.89      11.78
