34

O      -1.52      14.72      17.30
O      -4.03      24.29       7.35
H      -4.87      18.41      14.43
H      -0.82      21.52      11.25
H      -4.81      16.60      16.13
H      -0.83      23.22       9.42
H      -0.49      15.41      16.24
H      -5.15      23.32       8.11
C      -2.69      15.11      16.87
C      -2.91      24.03       7.96
O      -0.34      15.93      15.40
O      -5.32      22.61       8.79
O       0.02      18.97      13.53
O       0.13      16.92      12.74
O      -5.88      19.93      10.05
O      -5.71      21.07      11.93
C      -3.95      17.85      14.63
C      -1.72      21.75      10.70
C      -3.91      16.85      15.58
C      -1.74      22.70       9.70
C      -2.72      16.16      15.86
C      -2.93      23.01       9.01
C      -1.53      16.50      15.14
C      -4.13      22.34       9.35
C      -1.62      17.48      14.15
C      -4.08      21.37      10.36
C      -2.80      18.19      13.89
C      -2.90      21.06      11.05
C      -2.84      19.20      12.90
C      -2.88      20.07      12.05
N      -0.40      17.81      13.41
N      -5.31      20.73      10.80
O      -3.79      14.60      17.29
O      -1.83      24.65       7.70
