12

O      11.47       2.50      25.20
C      12.20       3.01      23.05
C      12.08       3.22      21.84
C      11.98       3.41      20.52
C      11.93       3.55      19.30
C      11.86       3.73      17.97
C      11.80       3.93      16.76
C      12.46       2.55      24.38
O      12.68       4.64      14.74
C      11.61       4.38      15.41
O      10.42       4.54      15.03
O      13.64       2.18      24.62
