25

C      11.00       9.62      10.38
H      14.26       6.46      11.39
C       9.93       8.86      10.88
H      11.94       7.10      10.73
C       8.60       9.15      10.54
H      13.23      11.22      10.82
C       9.13      12.04       8.15
C       7.53       8.34      11.18
H      15.50      10.39      11.47
H       7.31      10.39       9.33
N      14.96       8.39      11.46
H      11.51      11.31       9.12
O       6.30       8.66      11.02
H      10.11       8.04      11.57
O       7.92       7.37      11.91
C      13.98       7.50      11.25
O       8.20      11.86       7.30
C      12.69       7.87      10.90
O       9.89      13.07       8.18
C      12.38       9.23      10.73
C      13.42      10.15      10.92
C      14.68       9.70      11.29
C       8.33      10.18       9.64
C       9.39      10.96       9.14
C      10.71      10.70       9.53
