16

Cl       6.92       1.79      10.58
O      12.41       0.48      13.49
O       7.37      -2.43       9.37
O      11.29       2.43      13.49
C       7.23      -1.21       9.71
C      11.43       1.21      13.14
C       8.30      -0.59      10.59
C      10.36       0.59      12.26
C       8.22       0.76      11.02
C      10.44      -0.76      11.84
O       6.25      -0.48       9.37
C       9.43      -1.34      11.02
Cl       8.98       2.98      12.27
Cl       9.68      -2.98      10.58
C       9.23       1.34      11.84
Cl      11.74      -1.79      12.27
