13

C      10.16       6.59       7.66
C      11.63       8.44       7.66
O       9.31       5.97       5.50
O       8.61       4.88       7.36
O      12.48       9.06       5.50
O      13.18      10.16       7.36
H      12.29       7.91       8.37
H      10.95       9.09       8.22
H       9.50       7.13       8.37
H      10.84       5.94       8.22
C       9.29       5.75       6.74
O      10.89       7.52       6.88
C      12.50       9.28       6.74
