32

H      10.26      13.10      15.64
H      10.36      15.60      15.66
H       6.06      15.72      15.54
H      10.55      19.92      15.55
H       6.40      22.63      15.72
H       6.24      20.14      15.67
N       5.69      13.12      15.51
N      10.97      22.51      15.51
O       9.28      10.94      15.83
O       7.09      10.86      15.30
O       7.39      24.75      15.84
O       9.64      24.81      15.60
H       5.71      12.12      15.27
H       4.88      13.67      15.25
H      11.00      23.52      15.66
H      11.79      21.95      15.73
C       8.16      11.51      15.57
C       8.52      24.18      15.70
C       8.13      12.99      15.58
C       9.35      13.69      15.63
C       9.41      15.07      15.64
C       8.21      15.82      15.61
C       6.98      15.14      15.56
C       6.91      13.74      15.53
C       8.25      17.24      15.61
C       8.33      18.45      15.61
C       8.40      19.87      15.61
C       9.64      20.52      15.58
C       9.74      21.93      15.59
C       8.54      22.69      15.65
C       7.30      22.02      15.67
C       7.21      20.64      15.65
