72

H      -2.00       1.06       9.38
H      -2.95       3.34      10.50
H       4.36       1.11       5.61
H       2.18      -0.20       6.51
H       6.99       3.74       7.05
H       8.88       3.02       5.60
H       6.39       2.46       2.34
H       4.37       3.13       3.67
H       1.42      -0.52       9.52
H       0.78      -2.93       9.40
H      -1.99      -2.19       6.42
H      -1.44       0.26       6.39
H       5.10       8.37       6.96
H       6.05       6.10       5.84
H      -1.27       8.33      10.72
H       0.92       9.63       9.82
H      -3.89       5.70       9.29
H      -5.79       6.42      10.74
H      -3.29       6.98      13.99
H      -1.28       6.31      12.67
H       1.67       9.96       6.81
H       2.31      12.37       6.94
H       5.08      11.62       9.92
H       4.53       9.18       9.94
C       3.46       7.02       7.69
C      -1.58       2.06       9.33
C      -2.06       3.21       9.90
C      -1.14       4.26       9.56
C      -1.25       5.57      10.03
C      -0.28       6.55       9.78
C       3.52       1.51       6.16
C       2.43       0.85       6.63
C       1.62       1.82       7.33
C       2.66       7.94       8.36
C       5.51       3.49       5.48
C       6.81       3.47       6.01
C       7.87       3.06       5.19
C       6.49       2.74       3.40
C       5.36       3.12       4.13
C       3.06       9.37       8.37
C       2.44      10.29       7.52
C       2.79      11.63       7.58
C      -1.24      -1.78       7.10
C      -0.94      -0.42       7.09
C      -0.36       2.42       8.65
C       4.68       7.37       7.00
C       5.16       6.23       6.44
C       4.23       5.18       6.78
C       4.34       3.87       6.31
C       3.38       2.89       6.56
C      -0.43       7.93      10.17
C       0.67       8.59       9.70
C       1.47       7.61       9.01
C       0.44       1.50       7.98
C      -2.42       5.94      10.86
C      -3.72       5.97      10.33
C      -4.77       6.38      11.15
C      -3.39       6.70      12.94
C      -2.27       6.32      12.21
C       0.03       0.07       7.97
C       0.66      -0.85       8.82
C       0.30      -2.20       8.75
C       4.33      11.21       9.24
C       4.04       9.85       9.25
N       3.20       5.67       7.56
N       0.89       6.36       9.07
N       7.73       2.70       3.91
N       3.73      12.10       8.43
N      -0.10       3.77       8.78
N       2.20       3.08       7.27
N      -4.63       6.74      12.43
N      -0.63      -2.66       7.91
