20

O       9.07       7.13       6.43
O       8.98      13.89       8.67
H       8.91       9.72       9.88
H       8.94      11.29       5.21
H       6.93      11.87       7.15
H      10.92       9.14       7.95
H       6.94       9.12       7.92
H      10.91      11.89       7.17
C       7.82       9.75       7.77
C      10.03      11.26       7.32
C       7.82      11.25       7.31
C      10.03       9.76       7.78
C       8.92      11.56       8.40
C       8.94       9.45       6.69
C       8.92      10.06       8.84
C       8.93      10.95       6.25
C       8.95       8.25       5.82
C       8.91      12.76       9.27
O       8.84       8.43       4.56
O       8.82      12.57      10.53
