32

O       5.75       5.51      17.92
H       5.75       0.43      21.21
H       5.75      -0.43      15.13
O       5.75      -5.51      18.42
H       5.75       3.11      17.80
O       5.75       6.38      20.01
H       5.75      -3.11      18.54
O       5.75      -6.38      16.33
H       5.75       4.68      21.82
O       5.75       1.05      23.50
H       5.75      -4.68      14.52
O       5.75      -1.05      12.84
O       5.75       3.26      23.95
O       5.75      -3.26      12.39
C       5.75       2.53      21.66
C       5.75      -2.53      14.68
C       5.75       1.43      20.79
C       5.75      -1.43      15.55
C       5.75       1.62      19.39
C       5.75      -1.62      16.95
C       5.75       2.93      18.88
C       5.75      -2.93      17.46
C       5.75       4.03      19.75
C       5.75      -4.03      16.59
C       5.75       3.83      21.14
C       5.75      -3.83      15.20
C       5.75       2.30      23.15
C       5.75      -2.30      13.19
C       5.75       5.41      19.19
C       5.75      -5.41      17.16
C       5.75       0.49      18.53
C       5.75      -0.49      17.81
