20

H       1.95       2.15      11.16
H       2.04       4.28       9.93
H       1.09       6.94      14.50
H       2.87       6.95      14.48
H       2.90       4.78      15.75
H       1.12       4.75      15.75
C       1.99       1.76      13.87
C       1.99       6.82      10.94
C       1.99       5.53      11.69
C       1.99       3.04      13.12
C       1.97       5.48      13.08
C       1.97       3.08      11.72
C       2.02       4.27      13.77
C       2.02       4.29      11.02
C       1.98       6.32      14.34
C       2.01       4.95      15.13
O       2.93       1.59      14.72
O       1.06       0.92      13.62
O       2.93       7.02      10.10
O       1.06       7.64      11.22
