24

H       1.31       1.56       7.63
H       2.83       1.85       9.58
C       1.16       2.37       8.34
H      -0.96       4.85       8.71
C       2.00       2.54       9.43
H       0.45       5.29      10.70
N       0.13       3.20       8.09
H       3.41       3.01      11.62
C      -0.10       4.22       8.95
H       2.06       5.77      11.97
N       5.28       5.68      15.53
C       0.70       4.46      10.05
H       5.05       3.53      12.95
C       1.80       3.63      10.30
C       2.73       3.84      11.41
H       6.40       4.03      14.95
H       2.55       6.92      14.00
C       2.77       4.96      12.16
H       4.02       7.27      15.97
C       3.66       5.19      13.29
C       4.78       4.38      13.58
C       5.55       4.65      14.69
C       3.40       6.26      14.16
C       4.21       6.46      15.27
