20

H      12.03      -1.49      15.45
H      11.67      -5.43      13.86
H      11.25      -3.28      12.20
H      11.11      -1.69      12.98
H       9.00      -2.42      14.12
H       9.18      -4.06      13.46
H       8.69      -4.42      10.84
H       8.21      -0.50      12.44
C      12.09      -2.56      15.32
C      11.92      -4.58      14.49
C      10.89      -2.76      13.09
C       9.38      -3.00      13.27
C       8.40      -3.38      10.98
C       8.14      -1.37      11.80
N      12.66      -3.40      16.17
N      12.56      -4.66      15.65
N      11.62      -3.27      14.25
N       8.64      -2.61      12.08
N       7.75      -2.65      10.09
N       7.60      -1.39      10.60
