20

H       8.79      11.23       6.64
H      10.83       9.42       4.46
O      10.59       7.45       6.29
O       8.40       7.27       6.05
O       7.76      10.64       4.10
H       6.57      11.45       5.65
H       6.35       9.69       5.34
H       5.75      10.89       4.15
C       9.82       9.32       2.53
C       8.98      10.28       6.15
C       9.26       9.23       6.95
C       8.87      10.16       4.69
C       9.89       9.62       3.96
C       9.33       9.23       8.43
C       6.54      10.67       4.87
N       9.43       7.87       6.37
O      10.95       9.24       1.90
O       8.69       9.10       1.99
O       9.32      10.37       9.03
O       9.36       8.09       8.98
