38

N       9.49      11.31       8.19
N      16.63      -1.34       8.14
H      12.70      11.51       8.56
H       9.15       9.67       6.89
N      15.37      -1.86       7.97
H      15.76       4.94       7.76
N      15.19       7.56       7.56
N      17.75       0.73       8.19
H      11.49       5.94       5.42
H      12.27       3.58       5.62
H      13.48      -0.98       7.56
H      14.73       8.46       7.56
H      16.76       8.37       8.64
H      17.16       6.84       7.82
H      16.16       6.82       9.30
H      18.58       0.29       7.80
H      18.73       2.54       8.48
H      16.98       2.58       8.78
H      17.59       2.58       7.11
C      15.26       0.39       7.71
C      11.70      11.22       8.27
C       9.87      10.29       7.42
C      16.60      -0.00       8.00
C      11.28      10.17       7.44
C      14.44       6.51       7.09
C      13.17       6.78       6.47
C      12.44       5.72       5.91
C      12.87       4.40       6.03
C      14.05       4.12       6.74
C      14.85       5.18       7.22
C      12.59       8.06       6.60
C      14.44       2.79       7.02
C      14.79       1.67       7.37
C      12.05       9.11       6.91
C      14.55      -0.82       7.72
C      16.37       7.38       8.37
C      17.76       2.19       8.12
N      10.61      11.89       8.71
