18

H       6.64       4.98       9.42
C       3.37       4.48      11.75
C       4.39       4.00      12.56
C       3.49       4.57      10.31
H       1.58       5.49      11.73
H       2.12       4.89      13.29
N       5.92       4.69      10.08
N       2.17       4.87      12.27
O       5.73       5.04       7.53
O       3.49       4.68       7.50
H       5.25       3.53      12.09
H       2.57       4.61       9.72
H       6.06       4.83      11.07
C       4.60       4.81       8.08
C       4.65       4.68       9.59
O       5.47       3.61      14.59
O       3.30       4.26      14.65
C       4.37       3.95      14.00
