40

C       7.89      24.92      16.75
C       8.01      24.71      15.37
C       9.16      25.07      14.68
C      10.24      25.67      15.39
C      10.13      25.89      16.80
C       8.95      25.51      17.44
C      11.43      26.04      14.71
C      12.45      26.37      14.12
C      13.63      26.74      13.43
C      13.75      26.52      12.03
H       7.18      24.25      14.84
H       8.85      25.67      18.52
C      14.92      26.90      11.38
C      14.71      27.35      14.15
C      15.86      27.71      13.46
H      15.03      26.73      10.31
C      15.98      27.49      12.08
H      16.70      28.17      13.99
C      11.23      26.52      17.60
C       9.24      24.81      13.20
C      14.64      27.60      15.63
C      12.64      25.89      11.23
O      18.15      28.44      12.06
O      17.28      27.64      10.11
H      10.89      27.45      18.08
H      12.10      26.76      16.97
H      11.57      25.84      18.40
H       9.12      23.74      12.98
H      10.19      25.14      12.77
H       8.43      25.33      12.67
H      15.44      27.07      16.16
H      13.68      27.28      16.05
H      14.76      28.67      15.85
H      12.30      26.57      10.44
H      11.78      25.64      11.86
H      12.99      24.97      10.74
O       5.73      23.97      16.77
O       6.60      24.77      18.72
C      17.23      27.88      11.36
C       6.65      24.53      17.46
