65

C       6.87       5.92      12.96
C       6.29       7.15      12.64
P       8.93       4.19      13.60
C       7.03       8.32      12.75
P      12.74       5.25       9.48
C       8.37       8.27      13.15
H       6.41      -0.33       8.40
C       8.97       7.04      13.44
H       7.18       1.67       9.70
C      10.39       4.47      14.66
H      11.20       0.76       8.39
C      10.25       5.24      15.83
H      10.25      -1.15       7.11
C      11.30       5.32      16.75
H       8.31       2.31      11.54
C      12.50       4.64      16.52
H      11.17       5.48      12.07
C      12.65       3.87      15.36
H      11.36       3.01       8.55
C      11.60       3.78      14.44
H       6.29       4.99      12.89
C      14.23       4.36      10.07
H       5.25       7.19      12.31
C      14.34       3.88      11.38
H       6.57       9.28      12.51
C      15.52       3.28      11.82
H       8.96       9.19      13.22
C      16.60       3.14      10.94
H      10.02       7.01      13.74
C      16.49       3.59       9.62
H       9.32       5.76      16.03
C      15.30       4.18       9.18
H      11.18       5.92      17.65
C      12.78       6.81      10.44
H      13.31       4.71      17.24
C      13.70       7.09      11.46
H      13.58       3.34      15.18
C      13.66       8.31      12.14
H      11.72       3.17      13.55
C      12.68       9.26      11.83
H      13.50       3.98      12.07
C      11.76       8.99      10.81
H      15.60       2.91      12.84
C      11.81       7.78      10.11
H      17.52       2.67      11.28
N       8.30      -0.81       7.71
H      17.31       3.46       8.93
H      15.18       4.48       8.14
H      14.47       6.37      11.72
H      14.39       8.52      12.92
H      12.64      10.21      12.36
H      10.99       9.72      10.55
H      11.09       7.58       9.32
C       7.46      -0.03       8.42
C       7.90       1.07       9.15
C       9.27       1.38       9.17
C      10.13       0.57       8.42
C       9.61      -0.50       7.71
C       9.78       2.51       9.96
C       9.18       2.87      11.17
C       9.69       3.90      11.96
C      10.78       4.65      11.48
C      11.37       4.32      10.26
C      10.89       3.24       9.51
C       8.22       5.86      13.36
