28

H       8.08       0.36      13.55
H       6.35      -2.07      14.23
H       6.48       0.39      14.36
H       7.94      -2.14      13.41
C       5.97      -4.41      12.05
C       6.37       3.04      12.33
C       6.19      -4.42       9.86
C       6.08       3.21      10.16
H       5.77      -4.17      13.09
H       6.48       2.73      13.37
H       6.28      -4.21       8.80
H       5.95       3.06       9.09
H       5.00      -1.73       9.01
N       6.46       4.34      12.01
N       6.29      -5.66      11.68
H       5.13       0.70       9.14
N       6.42      -5.67      10.32
N       6.27       4.45      10.64
C       5.91      -3.56      10.93
C       6.12       2.26      11.19
C       6.29      -1.41      12.10
C       6.37      -0.03      12.17
C       5.82      -2.11      10.98
C       5.98       0.81      11.12
C       5.40      -1.27       9.92
C       5.48       0.12       9.99
C       7.05      -0.04      13.53
C       6.97      -1.62      13.44
