85

C       1.61      16.48      32.25
C       0.64      17.23      32.93
C       0.55      17.14      34.32
H       3.26      20.49      42.58
C       2.84      21.04      39.94
H       2.75      18.66      44.49
C       2.12      22.05      40.60
H      -0.01      14.06      44.51
C       2.50      23.38      40.50
C       3.64      23.71      39.75
H      -0.55      12.23      42.63
H       0.60      11.85      37.40
C       4.38      22.73      39.10
C       3.98      21.40      39.20
H       1.14      13.66      35.50
H       1.63      18.99      35.48
S      -1.00       7.14      40.04
S       1.71      16.61      30.48
H       2.15      20.81      37.38
H       0.42      18.29      45.14
S       4.15      25.42      39.72
N       1.82      17.69      41.43
H       0.46      18.33      47.60
N       0.91      15.00      41.45
H       1.41      16.40      48.87
N       1.04      14.95      38.58
H       2.32      14.44      47.62
H       2.31      14.43      45.15
N       1.68      17.72      38.56
H       1.47      11.08      41.49
O      -0.98       6.73      41.46
H       0.87       8.67      41.52
O       0.12       6.51      39.30
O      -2.30       6.93      39.40
H      -2.16       9.37      38.54
O       3.14      16.74      30.13
H      -1.63      11.81      38.59
O       1.14      15.36      29.94
H       3.05      14.92      34.91
H       3.20      15.04      32.43
O       0.92      17.79      30.14
O       5.34      25.53      38.86
H      -0.01      17.89      32.37
O       4.44      25.73      41.14
H      -0.21      17.72      34.85
H       1.24      21.79      41.19
O       3.02      26.22      39.23
H       1.92      24.16      40.99
H       5.27      23.01      38.54
H       4.56      20.62      38.70
C       2.33      18.96      41.21
C       2.78      19.52      42.46
C       2.51      18.60      43.43
C       1.88      17.47      42.80
C       1.37      16.36      43.47
C       0.86      15.23      42.81
C       0.23      14.11      43.46
C      -0.05      13.18      42.50
C       0.40      13.72      41.24
C       0.36      13.05      40.01
C       0.72      13.62      38.79
C       0.78      12.91      37.53
C       1.06      13.82      36.56
C       1.22      15.10      37.21
C       1.38      16.32      36.54
C       1.52      17.55      37.20
C       1.69      18.83      36.55
C       1.96      19.75      37.51
C       2.00      19.05      38.77
C       2.38      19.62      39.99
C       1.37      16.36      44.96
C       0.87      17.46      45.68
C       0.89      17.47      47.07
C       1.40      16.39      47.78
C       1.90      15.29      47.08
C       1.89      15.28      45.68
C      -0.03      11.61      40.02
C       0.67      10.71      40.85
C       0.34       9.36      40.87
C      -0.67       8.88      40.03
C      -1.37       9.75      39.19
C      -1.06      11.11      39.20
C       1.42      16.32      35.06
C       2.35      15.55      34.35
C       2.45      15.62      32.96
