20

C       3.02       8.10      12.67
C       4.41       8.11      12.71
C       5.15       8.28      11.52
C       4.40       8.44      10.34
H       9.35       7.97      13.58
H       6.87       7.99      13.67
C       3.01       8.41      10.38
H       9.37       8.53       9.48
H       6.90       8.59       9.37
H       2.43       7.97      13.58
H       4.90       7.99      13.67
H       4.88       8.59       9.37
H       2.41       8.53       9.48
N       9.45       8.24      11.53
N       2.33       8.24      11.53
C       8.75       8.10      12.67
C       7.36       8.11      12.71
C       6.63       8.28      11.52
C       7.38       8.44      10.34
C       8.77       8.41      10.38
