33

H      16.96      13.48      10.67
H      13.43      11.68      12.33
H      14.82      10.33      13.93
H      16.67       9.15      15.30
H      18.76       8.39      16.40
H      21.11      11.08      14.00
H      20.40      13.44      13.06
H      19.14      14.18      12.05
H      18.82      13.84      13.76
H      20.61      11.51      11.38
H      19.16      10.58      10.91
H      19.35      12.27      10.37
C      16.52      12.79      11.39
C      15.12      12.64      11.41
C      14.52      11.76      12.33
C      15.29      11.02      13.22
C      17.63       9.58      15.01
C      18.80       9.16      15.64
C      20.05       9.71      15.28
C      20.13      10.67      14.26
C      18.80      12.07      12.47
C      17.29      12.07      12.29
C      16.68      11.17      13.19
C      17.72      10.55      14.01
C      18.97      11.08      13.61
C      19.32      13.47      12.86
C      19.53      11.58      11.20
C      14.26      13.41      10.46
C      21.29       9.28      15.99
O      14.84      14.14       9.60
O      13.00      13.27      10.59
O      21.19       8.28      16.79
O      22.35       9.93      15.76
