14

H       3.78       1.33       9.37
H       7.27       1.31       6.81
H       3.76      -1.17       9.37
H       7.25      -1.19       6.80
N       5.54       4.04       8.12
N       5.48      -3.89       8.07
C       4.52      -0.62       8.81
C       6.50      -0.63       7.36
C       5.50      -1.31       8.08
C       6.51       0.76       7.36
C       4.53       0.77       8.82
C       5.53       1.46       8.09
C       5.49      -2.73       8.08
C       5.54       2.88       8.10
