28

H       0.54       3.97       8.45
H       0.50       1.45       8.40
H       4.79       1.39       8.40
H       4.82       3.92       8.45
H      -0.42      -2.24       8.43
H       3.87      -2.30       8.42
H       3.83      -4.82       8.38
H      -0.46      -4.77       8.38
C       1.67      -6.42       8.37
C       2.69       5.57       8.46
C       2.68       4.08       8.45
C       1.46       3.39       8.44
C       1.43       2.00       8.42
C       2.64       1.29       8.41
C       3.87       1.98       8.42
C       3.89       3.37       8.44
C       0.50      -2.83       8.41
C       1.72      -2.14       8.42
C       2.94      -2.85       8.41
C       2.91      -4.24       8.39
C       1.68      -4.93       8.37
C       0.48      -4.22       8.39
N       2.74      -0.12       8.39
N       1.63      -0.73       8.44
O       2.81      -7.01       8.38
O       3.83       6.15       8.45
O       1.56       6.16       8.45
O       0.54      -7.00       8.38
