34

O       5.68       2.82      16.58
O       4.41       1.18      15.75
O       6.66      -2.31      13.16
O       8.85      -2.44      13.20
C       5.51       1.80      15.84
C       6.68       1.32      15.05
C       6.72      -0.01      14.62
C       7.84      -0.48      13.94
O      11.10       2.25      14.03
C       8.84       1.67      14.08
C       7.72       2.18      14.73
O       9.61       3.75      13.42
C       8.97       0.33      13.71
O      13.46      -2.13       9.73
O      14.73      -1.86      11.54
O      12.48      -0.50      15.68
O      10.29      -0.57      15.79
O       8.04       0.12      11.08
O       9.52       1.16       9.84
H       5.89      -0.68      14.83
H       7.69       3.24      15.01
C      12.46      -1.15      11.64
C      12.42      -1.16      13.03
C      11.30      -0.66      13.69
C      10.17      -0.18      13.00
C      10.30      -0.11      11.61
C      11.41      -0.57      10.92
C      13.63      -1.75      10.93
H      13.25      -1.56      13.60
H      11.45      -0.50       9.83
N       7.78      -1.85      13.41
N       9.93       2.63      13.81
N      11.35      -0.58      15.16
N       9.21       0.44      10.78
