32

H       5.26       8.21      13.91
H       9.55       8.20      24.60
H       5.27       8.20      24.60
H       9.55       8.21      13.91
H       5.26       8.65      16.37
H       9.56       8.65      22.13
H       5.26       8.65      22.13
H       9.56       8.65      16.37
C       7.41       8.00      12.27
C       7.41       8.00      26.23
C       6.20       8.30      14.46
C       8.62       8.30      24.04
C       6.20       8.30      24.04
C       8.62       8.30      14.46
C       6.19       8.55      15.83
C       8.62       8.54      22.67
C       6.19       8.54      22.67
C       8.62       8.55      15.83
C       7.41       8.69      16.52
C       7.41       8.68      21.98
C       7.41       8.19      13.76
C       7.41       8.19      24.74
C       7.41       8.97      20.54
C       7.41       8.97      17.96
N       8.59       9.16      18.60
N       6.23       9.16      19.91
N       8.59       9.16      19.91
N       6.23       9.16      18.60
O       6.27       7.94      11.70
O       8.54       7.94      26.80
O       6.27       7.94      26.80
O       8.54       7.94      11.70
