16

C      -6.03      14.67       4.27
C      -8.23      13.26       5.29
O      -5.90      11.65       2.23
O      -4.55      13.49       2.24
H      -6.54      16.20       5.70
H      -7.71      11.73       3.86
H      -5.17      15.19       3.86
H      -9.09      12.73       5.70
O      -9.70      14.44       7.32
C      -8.71      15.12       6.90
O      -8.35      16.28       7.32
C      -5.55      12.80       2.66
C      -7.89      14.52       5.80
C      -6.36      13.40       3.76
C      -6.79      15.22       5.29
C      -7.46      12.70       4.27
