23

N       6.22       7.01       2.08
H       1.20      12.23       2.54
O       0.77      14.42       1.67
H       4.47      13.88       0.32
O       2.44      15.35       0.47
H       3.19       8.34       2.52
H       4.35       6.22       2.53
H       5.79      11.80       0.69
C       4.25       8.35       2.31
H       2.50      10.17       2.97
C       4.95       9.52       1.98
H       7.99       7.99       1.63
C       2.21      12.11       2.13
H       6.96      10.24       1.51
C       4.91       7.13       2.33
C       4.24      10.80       1.83
C       4.78      11.88       1.10
C       2.94      10.96       2.36
C       2.75      13.16       1.37
C       6.92       8.13       1.80
C       1.96      14.41       1.13
C       6.33       9.38       1.74
C       4.05      13.04       0.88
