30

C       1.27      38.87      20.45
C       1.31      40.02      19.67
C       1.91      36.49      20.89
C       1.91      35.18      20.49
C       1.27      32.80      20.93
C       1.98      33.96      21.31
C       2.79      33.90      22.46
C       2.84      32.74      23.23
C       2.10      31.61      22.87
C       1.31      31.65      21.71
Br       1.71      36.85      22.77
Br       1.71      34.82      18.61
O       1.19      29.53      23.51
H       3.49      38.98      17.27
H       3.41      36.92      18.64
H       0.65      38.85      21.34
H       0.72      40.89      19.94
O       1.19      42.14      17.87
H       0.65      32.82      20.04
H       3.41      34.75      22.74
O       3.10      41.44      16.87
H       0.72      30.78      21.44
H       3.49      32.69      24.11
C       2.13      30.37      23.69
O       3.10      30.23      24.51
C       2.13      41.30      17.69
C       2.10      40.06      18.51
C       2.84      38.93      18.15
C       2.79      37.77      18.92
C       1.98      37.71      20.07
