16

C      -2.72       9.84       5.96
C      -4.58      11.41       6.17
C      -1.92      10.77       6.65
O      -1.95      14.04       8.20
H      -5.62      11.66       5.97
O      -4.56       8.13       4.63
H      -0.89      10.52       6.85
O      -0.34      12.50       8.15
C      -1.52      12.88       7.84
O      -6.17       9.67       4.68
C      -4.99       9.29       4.98
O      -4.38      13.50       7.23
C      -2.43      11.99       7.10
O      -2.12       8.67       5.60
C      -4.08      10.18       5.72
C      -3.79      12.33       6.86
