30

H       5.08      10.47       7.87
H       8.30       4.94      15.05
H       5.47       7.07      10.77
H       7.91       8.34      12.16
H       4.45       3.52      13.78
H       8.93      11.89       9.15
H       8.21       6.72      13.34
H       5.17       8.68       9.58
C       6.38       3.09      15.59
C       7.00      12.32       7.33
C       7.01      11.27       8.39
C       6.37       4.14      14.53
C       5.94      10.38       8.53
C       7.44       5.03      14.39
C       6.00       9.38       9.49
C       7.38       6.03      13.43
C       7.08       9.27      10.40
C       6.30       6.14      12.53
C       8.12      10.22      10.27
C       5.26       5.18      12.65
C       8.11      11.18       9.26
C       5.27       4.22      13.66
C       7.11       8.23      11.42
C       6.27       7.18      11.51
I       9.76      10.26      11.60
I       3.62       5.15      11.32
O       7.52       2.74      16.05
O       5.86      12.67       6.87
O       5.25       2.64      15.97
O       8.13      12.77       6.96
