32

H       8.49       8.53      15.07
H       6.00       9.19      24.12
H       8.22       5.52      23.94
H       7.36       8.61      19.46
H       5.90       4.93      17.30
H       5.87       5.14      14.81
H       6.85       5.58      19.48
H       8.28       5.69      21.45
H       8.51       8.35      17.55
H       6.09       9.79      20.52
H       5.75      10.45      22.06
C       7.10       6.56      19.06
C       7.23       7.61      19.90
C       7.10       7.35      24.16
C       7.17       6.65      17.60
C       6.46       5.72      16.81
C       7.02       7.24      25.65
C       7.15       7.01      13.31
C       7.16       6.86      14.79
C       7.91       7.76      15.57
C       6.44       5.84      15.42
C       7.91       7.66      16.95
C       6.56       8.56      22.12
C       6.51       8.44      23.52
C       7.74       6.35      23.42
C       7.77       6.45      22.04
C       7.19       7.53      21.36
N       5.92       9.62      21.50
O       7.81       6.41      26.21
O       6.27       6.35      12.66
O       6.16       7.98      26.24
O       8.02       7.79      12.81
