22

H       4.59       7.46       7.55
H       1.59       9.75      11.68
H       0.78       5.94       8.82
H       5.40      11.27      10.41
H       0.61       7.74      10.55
H       5.57       9.47       8.68
O       1.85       4.70       6.91
O       4.33      12.51      12.32
O       3.85       5.54       6.29
O       2.33      11.67      12.94
C       3.73       7.54       8.22
C       2.45       9.67      11.01
C       2.71       6.61       8.09
C       3.47      10.60      11.14
C       1.57       6.69       8.95
C       4.61      10.53      10.28
C       1.48       7.68       9.90
C       4.70       9.54       9.33
C       2.52       8.64      10.04
C       3.66       8.57       9.19
C       2.80       5.55       7.04
C       3.38      11.67      12.19
