13

H       7.54      -0.91       7.25
C       3.58       0.02       5.96
N       4.42       1.03       5.74
N       5.63       0.70       6.30
H       1.81       0.93       5.21
N       4.22      -0.96       6.66
H       1.53      -0.52       6.22
H       6.46      -2.35       7.23
H       6.45      -1.23       8.62
H       2.13      -0.71       4.58
C       2.18      -0.06       5.46
C       5.49      -0.52       6.84
C       6.55      -1.29       7.52
