28

O      18.23      28.54      12.10
O      17.37      27.73      10.16
H       9.29      24.97      13.70
H      10.99      26.41      17.42
H      12.99      26.15      11.56
H      14.69      27.59      15.28
O       5.75      24.03      16.88
O       6.62      24.83      18.82
F       7.11      24.23      14.72
F       8.99      25.81      18.83
F      15.00      26.75      10.15
F      16.87      28.33      14.26
C      17.32      27.98      11.41
C       6.67      24.58      17.57
C       7.92      24.98      16.85
C       8.09      24.79      15.46
C       9.24      25.15      14.77
C      10.30      25.74      15.47
C      10.19      25.96      16.85
C       9.02      25.58      17.50
C      11.48      26.12      14.78
C      12.50      26.44      14.20
C      13.68      26.82      13.51
C      13.80      26.61      12.13
C      14.96      26.98      11.48
C      16.07      27.58      12.13
C      15.89      27.77      13.52
C      14.75      27.41      14.21
