26

Cl       3.75      11.12       8.66
Cl       5.71      16.73       7.13
H       5.43      11.01      10.69
H       4.15      16.78       5.01
H       2.03      13.06       5.02
O       7.03      11.22      12.52
H       7.54      14.73      10.69
H       6.30      15.42       8.73
O       2.56      16.56       3.17
H       3.21      12.41       7.03
O       1.43      14.59       3.16
O       8.17      13.19      12.53
C       7.32      12.37      12.05
C       2.29      15.40       3.63
C       6.58      12.81      10.83
C       3.01      14.97       4.86
C       5.62      11.99      10.25
C       4.89      12.38       9.12
C       3.95      15.81       5.46
C       4.63      15.44       6.63
C       2.76      13.74       5.46
C       3.44      13.38       6.61
C       6.80      14.06      10.26
C       6.08      14.44       9.13
C       5.10      13.65       8.49
C       4.41      14.18       7.27
