22

O      10.87      13.71       1.18
O      11.53      15.79       1.82
O      16.29      12.87       5.96
O      15.55      10.81       5.32
H      13.49      12.81       1.15
H      16.57      11.82       2.61
H      15.45      11.53       1.27
H      15.43      10.47       2.71
H      13.67      13.83       5.98
H      10.59      14.82       4.53
H      11.73      16.17       4.42
H      11.72      15.13       5.87
C      11.59      14.52       1.86
C      12.61      13.91       2.77
C      13.54      13.02       2.22
C      14.53      12.42       2.99
C      15.54      11.51       2.36
C      14.55      12.72       4.37
C      13.62      13.61       4.91
C      12.63      14.22       4.14
C      11.62      15.14       4.77
C      15.54      12.08       5.28
