24

F      11.73       3.30       0.89
H      11.85       5.72      -0.84
H      13.96       2.31      -0.82
H      15.93       3.54       0.82
H      15.86       5.84      -0.85
H      13.82       6.95       0.80
C      13.88       4.63      -5.46
C      12.76       5.25      -0.46
C      12.83       3.97       0.43
C      13.90       4.62       4.00
C      13.88       4.63      -4.02
C      13.86       5.92       0.43
C      13.91       4.65       1.37
C      14.99       5.31      -0.46
C      13.89       4.62      -1.39
C      15.03       4.03       0.43
C      13.90       4.62       5.44
C      13.94       3.34      -0.46
C      13.91       4.64       2.78
C      13.88       4.63      -2.80
O      13.88       5.78      -6.02
O      13.91       3.48       6.01
O      13.89       3.49      -6.03
O      13.90       5.77       6.00
