19

H       0.09       0.16      23.92
H       4.36       0.33      24.29
H       0.21      -2.34      23.97
H       5.66      -1.48      24.50
H       4.98      -3.01      25.14
H       5.21      -2.81      23.41
C       2.20       1.89      24.06
C       2.32      -3.92      24.06
C       2.35      -2.42      24.10
C       2.23       0.39      24.09
C       3.55      -1.67      24.20
C       1.05      -0.36      24.00
C       3.45      -0.28      24.20
C       1.12      -1.74      24.02
C       4.93      -2.27      24.32
O       1.09       2.46      23.80
O       3.30       2.49      24.31
O       3.42      -4.55      23.95
O       1.17      -4.48      24.12
