13

O      10.41       6.99      12.90
C      11.94       5.20      12.38
H      13.01       5.37      12.53
O      12.29       6.32      15.30
C      12.86       5.17      15.41
O      11.70       7.22      11.11
C      11.31       6.56      12.11
H      11.82       3.33      15.20
H      11.86       4.59      11.47
O      13.80       4.94      16.21
C      12.32       4.04      14.53
N      11.34       4.52      13.54
H      13.17       3.53      14.05
