42

H       5.51       0.74      10.36
H       7.72       0.56       9.86
H       8.14      -1.67       9.45
H       4.54      -1.16       7.19
H       4.26       0.57       9.12
C       6.04       5.00       8.72
C       6.36      -5.83       8.12
C       5.29       0.31       9.38
C       7.67       0.37       8.78
C       7.74      -1.16       8.56
C       6.38      -4.38       8.12
C       6.28       0.93       8.33
C       5.45      -1.21       9.46
C       6.32      -1.73       8.25
C       5.62      -1.08       7.00
C       5.87       0.42       6.90
C       6.35      -3.18       8.17
C       6.22       2.37       8.46
C       6.10       3.56       8.65
N       6.11      -1.67      10.81
N       8.75      -1.54       7.48
N       4.50       1.14       6.49
N       6.83       0.93       5.78
N       4.03      -1.85       9.57
N       5.72      -1.86       5.67
O       4.91       5.52       8.46
O       7.13       5.59       9.00
O       5.23      -6.35       8.35
O       7.47      -6.42       7.92
O       6.05      -2.88      11.03
O       6.65      -0.81      11.51
O       8.65      -0.97       6.40
O       9.59      -2.38       7.80
O       3.48       0.69       7.01
O       4.58       2.11       5.75
O       6.75       0.35       4.70
O       7.52       1.91       6.04
O       3.60      -2.50       8.62
O       3.44      -1.57      10.61
O       6.67      -2.60       5.48
O       4.74      -1.70       4.94
F       8.76       1.02       8.22
