28

H      22.23       6.22       6.18
H      23.87       5.73       6.61
H      23.26       5.46       4.97
H      24.87      12.15       4.71
H      24.28      11.87       3.07
H      25.92      11.39       3.52
H      22.16       6.26       3.51
H      21.20       7.68       3.08
H      21.12       7.02       4.71
H      27.02      10.58       4.98
H      26.93       9.93       6.62
H      25.98      11.35       6.17
O      25.38       6.46       7.48
O      26.71       8.25       7.46
C      25.70       7.61       7.01
C      22.44      10.00       2.67
C      24.86       8.23       5.90
C      23.28       9.38       3.79
O      22.74      11.15       2.22
C      23.73       7.53       5.36
C      24.40      10.08       4.32
C      22.95       8.10       4.32
O      21.44       9.35       2.21
C      25.19       9.51       5.36
C      23.26       6.16       5.82
C      24.87      11.45       3.86
C      21.79       7.24       3.87
C      26.34      10.37       5.82
