9

H       6.39       6.29      12.06
C       5.82       6.06      12.96
H       4.50       5.12      16.80
N       6.33       6.01      14.21
N       4.14       5.56      14.25
N       5.30       5.56      16.33
C       5.26       5.69      15.00
H       6.22       5.56      16.79
N       4.53       5.79      12.93
