22

H       3.39       0.51       7.45
C       0.58      -0.70       9.87
C      -0.51       0.17      10.06
C       1.38       0.66       8.16
C      -1.55      -0.06      11.11
C       2.42       0.90       7.11
H      -0.87       3.20       7.65
N      -0.62       1.28       9.29
H       1.75      -2.36      10.56
N       1.49      -0.44       8.92
H       0.26       2.55       6.44
H       0.61      -1.72      11.77
H       0.86       3.54       7.79
C       0.13       2.77       7.51
H       0.02      -2.70      10.42
C       0.75      -1.93      10.70
H      -1.27       0.46      12.03
H       2.15       0.37       6.18
H      -1.66      -1.13      11.33
H       2.54       1.96       6.89
H      -2.52       0.32      10.77
C       0.30       1.54       8.34
