28

O      19.21      14.19       1.23
O      21.42      13.94       1.69
H      22.44      18.01       4.12
H      18.19      18.43       3.35
H      22.44      21.90       6.25
H      18.19      22.32       5.48
F      22.66      15.79       2.95
F      17.97      16.25       2.11
F      22.66      24.09       7.49
F      17.97      24.54       6.65
C      20.31      25.76       7.86
C      20.31      14.57       1.74
C      20.31      15.88       2.45
C      21.48      16.44       3.03
C      21.50      17.65       3.70
C      20.31      18.39       3.83
C      19.13      17.89       3.27
C      19.15      16.67       2.61
C      20.31      19.63       4.51
C      20.31      20.70       5.09
C      20.31      21.94       5.77
C      21.50      22.45       6.33
C      21.48      23.67       6.99
C      20.31      24.45       7.14
C      19.15      23.90       6.57
C      19.13      22.68       5.90
O      21.42      26.15       8.37
O      19.21      26.40       7.91
