20

C       8.02       7.20       8.10
C      13.68       7.57       7.91
C      10.55       6.04       8.04
C      10.38       7.99       9.14
C      11.42       6.81       9.11
C      12.19       7.56       7.95
C      11.32       6.79       6.89
F      12.04       6.28      10.19
C      10.29       7.97       6.92
C       9.51       7.22       8.08
C      11.16       8.74       7.99
F      10.22       4.73       8.08
F       9.86       8.56      10.26
F      11.85       6.22       5.77
F      11.48      10.05       7.96
F       9.66       8.51       5.85
O       7.44       6.08       8.07
O       7.49       8.36       8.14
O      14.21       6.42       7.90
O      14.27       8.70       7.91
