20

O       8.02       3.65      12.43
H       7.42       0.08       5.98
H      10.39       3.10       5.17
O      10.27       3.45      12.68
H      10.57       3.57       7.61
H       7.60       0.55       8.42
C       9.16       3.28      12.04
C       9.24       2.68      10.73
C       8.22       1.10       7.70
C       8.11       0.84       6.34
C       9.79       2.54       5.89
C       9.89       2.80       7.24
C       9.11       2.08       8.17
C       8.90       1.56       5.41
C       8.82       1.25       4.03
C       9.19       2.38       9.55
C       8.78       0.96       2.85
C       8.85       0.43       1.52
O      10.01       0.25       1.03
O       7.73       0.13       0.95
