22

H       3.03       8.50       0.84
H       7.23       6.33      -0.78
O       5.63       8.30      -5.92
O       4.95       6.50       5.98
O       5.57       6.01      -6.01
O       4.68       8.77       6.09
H       3.48       8.09      -2.66
H       6.78       6.76       2.72
C       5.60       7.13      -5.41
C       4.79       7.66       5.48
C       3.95       8.03       0.49
O       7.09       6.57       1.81
C       4.93       7.60       1.41
C       6.32       6.81      -0.42
C       6.12       6.99       0.94
C       4.14       7.85      -0.88
C       4.78       7.73       2.80
C       5.34       7.23      -1.34
O       3.17       8.27      -1.74
C       4.78       7.72       4.02
C       5.50       7.10      -2.74
C       5.56       7.10      -3.96
