26

H       8.37      13.40       4.26
H       8.29      10.93       4.04
H      12.20      10.67       5.85
H      12.25      13.13       6.06
O       9.17      15.49       5.30
H       8.87       9.05       3.15
O      11.38      15.48       5.71
H       8.50       6.60       3.27
H      11.07       6.38       6.71
O       9.74       4.23       6.18
H      11.39       8.82       6.64
O       8.65       4.35       4.25
C      10.29      14.90       5.41
C      10.31      13.42       5.18
C       9.21      12.79       4.59
C       9.17      11.41       4.47
C      10.23      10.61       4.94
C      11.35      11.25       5.50
C      11.39      12.64       5.61
C      10.13       9.13       4.91
C       9.34       8.48       3.94
C       9.14       7.10       4.00
C       9.74       6.33       5.00
C      10.58       6.97       5.93
C      10.77       8.34       5.88
C       9.39       4.89       5.12
