36

H       7.64      13.54      34.72
H       7.78      11.08      34.82
H       3.46      10.89      34.90
H       7.81       6.67      34.91
H       3.63       4.03      34.70
H       3.49       6.50      34.80
H       3.18      15.15      33.82
H       8.07       2.41      33.80
C       5.56      15.12      34.72
C       5.70       2.45      34.71
O       2.54      14.42      33.61
O       1.72      12.38      34.61
O       2.44      14.25      36.10
O       8.72       3.14      33.60
O       9.55       5.17      34.60
O       8.82       3.30      36.09
C       5.49      13.63      34.78
C       6.72      12.95      34.77
C       6.80      11.57      34.82
C       5.62      10.80      34.87
C       4.38      11.47      34.88
C       4.30      12.85      34.84
C       5.65       9.39      34.90
C       5.63       8.17      34.90
C       5.65       6.76      34.87
C       6.89       6.09      34.88
C       6.96       4.71      34.83
C       5.77       3.93      34.77
C       4.54       4.62      34.76
C       4.46       6.00      34.81
S       2.61      13.47      34.90
S       8.66       4.08      34.89
O       6.72      15.65      34.63
O       4.47      15.80      34.77
O       4.54       1.92      34.62
O       6.79       1.76      34.75
