20

S       2.84       1.43       4.82
S       5.79       3.98       3.32
N       6.86       1.24       4.95
N       1.79       3.92       2.81
C       4.33      -0.42       6.19
C       4.30       5.86       2.00
O       3.21      -1.03       6.20
O       5.36      -0.69       6.86
O       5.44       6.17       1.52
O       3.23       6.55       1.95
O       7.61       2.24       4.92
O       7.24       0.07       4.98
O       0.99       3.40       3.62
O       1.48       4.45       1.74
C       5.44       1.54       4.84
C       3.19       3.80       3.18
C       4.37       0.77       5.30
C       4.26       4.58       2.75
C       3.61       2.73       4.00
C       5.01       2.68       4.13
