28

H       8.58       8.27      12.42
H       8.48       8.30      14.92
H      12.42      10.04      15.01
H       7.65       7.92      18.63
H      11.59       9.65      18.72
H      11.49       9.69      21.22
C      10.55       8.91      10.81
C       9.52       9.05      22.83
C      10.56       9.07      12.30
C       9.43       8.63      13.01
C       9.36       8.65      14.39
C      10.47       9.14      15.11
C      11.59       9.63      14.43
C      11.64       9.60      13.04
C       8.48       8.33      19.21
C       9.61       8.81      18.53
C      10.71       9.30      19.26
C      10.65       9.33      20.64
C       9.51       8.88      21.34
C       8.43       8.36      20.61
N      10.54       9.21      16.52
N       9.53       8.75      17.12
Cl      13.04      10.29      12.28
Cl       7.04       7.67      21.36
O      11.65       8.66      10.24
O      10.66       8.97      23.39
O       8.42       9.30      23.41
O       9.41       8.98      10.25
