30

C      10.67      20.58      13.62
C      12.21      18.70      13.08
C      11.21      19.29      13.93
H      12.49      15.68      14.68
H      12.61      21.32      10.90
H      10.92      16.74      16.21
I      14.66      20.09       9.71
H      10.81      22.25      12.24
I      14.10      14.75      12.77
I       8.77      22.94      13.80
C      12.15      16.69      14.48
C      12.21      20.75      11.73
C      11.27      17.28      15.33
C      11.21      21.27      12.49
I       9.32      18.21      17.74
O       8.42      21.10      17.75
O       7.14      21.54      15.94
O      15.00      15.75      10.05
O      16.29      17.60      10.28
C       8.18      21.08      16.50
C      15.24      16.91      10.51
C      13.79      18.87      11.21
C      13.59      16.78      12.44
C       9.63      21.11      14.42
C       9.83      19.23      15.96
C      14.19      17.53      11.40
C       9.23      20.46      15.61
C      12.66      17.37      13.33
C      12.75      19.45      11.99
C      10.75      18.59      15.09
