30

C       1.01       8.28      21.39
C       0.95       7.59      22.39
O       2.48      13.21      14.17
O       0.22      13.43      14.35
H       2.73       9.23      17.25
H       2.11       7.68      18.92
H      -1.03       9.44      19.91
O      -0.20       6.53      24.11
H      -0.45       7.93      19.20
H       0.17       8.97      17.19
O       2.07       6.35      23.99
H      -0.86      10.30      17.73
H       2.27      10.70      21.08
H       0.54      10.86      21.36
H       1.93      12.26      19.34
H       3.20       8.58      19.97
H       3.39      10.36      18.43
H       0.19      12.01      19.34
C       0.93       6.77      23.57
C       1.36      13.00      14.74
C       2.31       8.68      19.33
C      -0.19       8.99      19.35
C       0.02       9.70      18.00
C       1.37      12.18      15.92
C       1.09       9.10      20.21
C       2.53       9.72      18.21
C       1.27      10.62      18.08
C       1.15      11.49      19.36
C       1.28      10.59      20.61
C       1.34      11.46      16.90
