48

H       5.73       0.04      14.44
H       6.75       1.44      14.91
C       3.71       0.12      10.34
C       5.14       1.95      11.03
C       5.28       1.75      12.54
C       6.67       0.57      14.22
C       3.55      -1.17       9.53
C       4.21      -1.08       8.16
H       6.79      -2.03      13.84
H       8.49      -2.25      14.39
H       9.72      -0.40      15.25
H       9.07       1.24      15.07
H      10.87       0.54      13.33
H       9.38       1.20      12.66
N       7.77      -0.31      14.51
N       8.24      -1.47      12.42
H      10.29      -1.72      12.84
H       7.33      -3.33      12.08
H       9.93      -0.78      11.37
H       9.10      -3.37      11.94
H       7.60      -0.87       8.31
H       6.58      -2.26       7.84
N       6.79      -1.87       9.93
H       8.88      -1.96       9.82
H       8.11      -3.56       9.70
N       5.56      -0.51       8.23
N       5.10       0.65      10.33
N       6.55       1.05      12.82
C       7.79      -1.59      13.84
C       9.12       0.26      14.59
C       9.79       0.35      13.21
C       9.63      -0.94      12.41
C       8.20      -2.77      11.71
C       8.06      -2.57      10.20
C       6.66      -1.40       8.52
H       5.23       2.73      13.05
H       6.55       1.20       8.91
H       4.84       1.42       8.36
H       3.62      -0.42       7.50
H       4.27      -2.06       7.68
H       2.47      -1.36       9.41
H       3.95      -2.02      10.09
H       3.41      -0.05      11.38
H       3.05       0.90       9.91
H       6.01       2.51      10.67
H       4.24       2.55      10.81
H       4.46       1.13      12.93
C       5.54       0.76       8.90
