16

S      22.00      13.43      18.31
O      25.41      11.61      18.89
S      21.24      13.62      22.41
O      24.28      12.28      17.02
C      24.43      12.15      18.29
C      23.20      12.68      20.50
C      20.02      14.38      20.21
C      18.80      14.93      22.39
C      19.90      14.37      21.59
C      21.22      13.76      19.81
H      19.27      14.82      19.56
C      21.99      13.30      20.90
Br      24.39      11.98      21.77
C      23.34      12.68      19.12
O      17.85      15.48      21.75
O      18.91      14.80      23.66
