22

C       7.35      21.04       5.98
C       6.71      19.81       6.16
C       7.44      18.64       6.06
C       9.38      19.81       5.60
C       8.72      21.03       5.69
N       7.07      23.36       5.36
H       3.72      23.65       7.32
N       8.75      18.63       5.77
H       5.09      21.53       7.42
C       4.30      25.85       5.86
H       6.75      25.33       4.78
H       5.63      19.74       6.32
C       5.11      24.61       5.99
O       3.11      25.89       6.30
C       4.66      23.55       6.77
H       6.96      17.67       6.18
O       4.82      26.88       5.29
C       5.41      22.38       6.82
H      10.44      19.77       5.36
C       6.59      22.31       6.06
H       9.27      21.96       5.53
C       6.35      24.48       5.34
