38

H       8.24      13.37      13.00
H       3.97      13.35      12.96
H       3.97       7.80      16.94
H       8.24       7.77      16.91
N       9.85       9.41      15.76
N       9.85      11.73      14.15
N       2.36       9.43      15.78
N       2.36      11.72      14.13
C       6.10      14.68      12.05
C       6.10       6.47      17.85
C       7.32      12.90      13.32
C       7.34      11.75      14.12
O       4.97      15.13      11.71
C       4.89      12.88      13.30
O       7.24      15.15      11.73
C       4.87      11.75      14.12
C       8.56      11.13      14.55
C       3.65      11.13      14.56
C       3.65      10.01      15.34
C       4.87       9.40      15.78
C       7.34       9.40      15.79
C       8.56      10.02      15.35
C       6.10      13.45      12.92
O       7.24       6.00      18.17
C       6.10      11.15      14.54
C       4.89       8.26      16.61
C       6.10       9.99      15.36
C       6.10       7.69      16.99
C       7.32       8.24      16.58
O      10.05       9.30      16.97
O      10.60       9.05      14.85
O      10.05      11.84      12.93
O      10.60      12.09      15.06
O       2.16       8.24      15.48
O       1.61      10.16      16.42
O       2.16      12.90      14.43
O       1.61      10.98      13.49
O       4.97       6.01      18.20
