40

H       0.82      19.21      17.10
H       4.50      20.59      15.36
H       5.50      19.38      13.45
H       5.45      17.50      11.83
H       4.41      15.41      11.02
H       0.74      14.00      12.74
H      -2.09      15.84      14.90
H      -3.63      13.94      15.18
H      -2.72      11.62      15.46
H      -0.26      11.27      15.50
H       1.27      13.18      15.17
C       2.55      13.45      10.85
C       1.61      19.08      16.36
C       2.64      20.02      16.29
C       3.68      19.87      15.37
C       3.66      18.81      14.45
C       2.61      17.84      14.51
C       1.59      17.96      15.52
C       4.69      18.65      13.46
C       4.66      17.62      12.57
C       3.61      16.64      12.61
C       2.58      16.76      13.60
C       1.56      15.76      13.69
C       0.61      15.80      14.80
C       0.64      16.89      15.64
C       3.60      15.54      11.74
C       2.56      14.62      11.78
C       1.54      14.74      12.73
C       2.65      21.17      17.25
C      -0.31      14.65      14.99
C      -1.69      14.84      15.02
C      -2.55      13.76      15.18
C      -2.05      12.47      15.35
C      -0.67      12.27      15.35
C       0.19      13.35      15.17
Br      -0.54      16.95      17.15
O       1.42      12.94      10.57
O       3.68      13.06      10.40
O       1.52      21.54      17.71
O       3.78      21.67      17.53
