22

H       5.50      10.84       3.47
H       2.73      13.14       4.25
H       1.10      12.84       2.83
H       0.94      11.63       4.15
H       0.29      11.27       2.51
H       4.60      11.37       7.78
H       6.23      12.06       7.51
H       5.93      10.31       7.21
C       4.04      13.64       6.35
C       4.66       9.58       1.92
C       3.46      11.31       3.31
C       4.57      10.59       2.96
C       3.46      12.33       4.34
C       4.22      12.43       5.46
C       1.10      11.76       3.07
C       5.51      11.32       7.16
O       5.09      14.12       6.88
O       2.85      14.08       6.47
O       5.84       9.26       1.51
O       3.58       9.05       1.47
O       2.30      11.12       2.62
O       5.19      11.52       5.76
