28

C       3.39      13.83       0.01
C       4.63      13.16       0.00
C       4.73      11.78       0.01
C       3.56      11.00       0.04
C       2.31      11.64       0.05
C       2.22      13.04       0.04
C       3.63       9.58       0.05
C       3.69       8.37       0.05
H       5.52      13.77      -0.02
H       5.71      11.30       0.01
H       1.39      11.06       0.07
H       5.92       6.87       0.05
C       3.75       6.95       0.05
H       1.60       6.68       0.05
C       4.99       6.29       0.05
C       5.06       4.90       0.03
C       2.65       4.80       0.03
C       2.57       6.18       0.04
C       3.45      15.32       0.00
C       3.88       4.12       0.02
C       3.84       2.63       0.01
H       1.75       4.20       0.03
Cl       0.63      13.71       0.06
Cl       6.65       4.22       0.03
O       4.62      15.84      -0.00
O       2.37      16.01      -0.00
O       2.66       2.09       0.00
O       4.92       1.97       0.00
