22

O      15.83       6.95       8.40
O      16.81       6.01      10.24
H      15.60       6.53      12.36
H      13.84       7.59      13.76
H      11.18       9.17       9.35
H      12.30      10.54       9.57
H      12.89       7.98       7.98
H      14.57      10.35       8.48
H      14.94       9.10       7.49
C      13.86       8.13       9.96
C      14.86       7.33      10.50
C      14.83       7.15      11.90
C      13.84       7.74      12.69
C      12.84       8.56      12.13
C      12.88       8.74      10.74
C      12.23       9.44       9.56
C      13.32       8.74       8.66
C      15.91       6.71       9.66
C      11.81       9.19      12.99
N      14.15       9.64       7.87
O      10.90       9.88      12.41
O      11.92       9.00      14.25
