24

Br       8.89       0.12       4.21
H      11.04      -3.87       7.68
H       7.89      -1.50       7.04
C       9.57      -0.71      11.37
O      11.83      -2.61       0.80
O      10.97      -4.72       0.78
O       9.07      -1.75      11.88
O       9.64       0.46      11.92
C      10.63      -3.10       7.02
C       9.30      -3.21       6.20
C      10.35      -3.23       2.44
C      10.04      -0.88      10.02
C      11.34      -2.48       5.78
C      10.01      -2.60       4.93
C      10.93      -1.03       6.25
C      10.20      -1.66       7.51
C       9.59      -1.16       5.42
C       8.87      -1.78       6.66
C      10.05      -3.01       3.59
C      10.18      -1.20       8.85
C      11.08      -3.52       1.24
I       8.02      -4.89       6.11
I      12.21       0.62       6.32
I      13.20      -3.04       4.95
