30

O       4.63       8.16       9.08
H       2.40       7.82       8.10
O      -4.41       6.86       8.68
H       0.20       7.19      12.53
O       4.77       6.60      10.74
O      -4.38       8.63      10.12
C       4.15       7.43      10.00
C      -3.86       7.76       9.37
O       3.64       8.10      12.87
O       2.53       6.28      13.43
O       0.22       9.23       6.17
O       0.99       7.16       6.22
O      -2.23       7.56       5.84
O      -3.44       9.00       6.99
O      -3.18       6.52      11.74
O      -1.93       8.07      12.68
C       2.67       7.50      10.18
C      -2.35       7.77       9.31
C      -0.33       7.89       7.97
C      -1.70       7.93       8.06
C      -1.58       7.57      10.44
C      -0.16       7.53      10.40
C       0.48       7.70       9.12
C       1.89       7.69       9.05
C       2.02       7.31      11.42
C       0.65       7.32      11.55
N       2.80       7.21      12.67
N       0.34       8.11       6.67
N      -2.52       8.18       6.86
N      -2.29       7.37      11.73
