22

Br      13.64       6.06       7.14
Br      17.59       9.94      11.25
H      13.58      10.09      10.18
H      17.90       7.20       7.02
H      10.83       6.78       7.79
H      20.44       9.45      10.59
N      10.88       8.43       9.03
N      20.50       8.35       8.83
H      11.06      10.10      10.25
H      20.42       7.24       7.08
C      13.00       9.35       9.64
C      18.43       7.71       7.82
C      11.61       9.35       9.69
C      19.82       7.73       7.85
C      11.48       7.49       8.30
C      19.84       8.99       9.81
C      12.87       7.42       8.19
C      18.45       9.03       9.84
C      13.67       8.36       8.88
C      17.70       8.37       8.83
C      15.08       8.35       8.82
C      16.29       8.37       8.83
