32

H       3.61       4.41       4.66
H       3.69       4.61       2.17
H      -0.41       5.97       2.20
H       3.71       6.13      -2.12
H      -0.26       4.75      -4.74
H      -0.34       4.66      -2.25
H      -0.86       5.54       5.75
H      -1.56       6.06       4.25
H       4.17       6.21      -5.70
H       4.88       6.46      -4.12
C       1.61       4.89       6.30
C       1.68       5.58      -6.32
C       1.58       5.07       4.84
C       2.74       4.77       4.11
C       2.80       4.88       2.73
C       1.64       5.31       2.03
C       0.48       5.63       2.74
C       0.41       5.51       4.15
C       1.65       5.38       0.61
C       1.67       5.40      -0.61
C       1.69       5.42      -2.02
C       2.84       5.83      -2.70
C       2.91       5.87      -4.11
C       1.74       5.50      -4.85
C       0.60       5.07      -4.15
C       0.55       5.02      -2.77
N      -0.74       5.87       4.80
N       4.06       6.30      -4.69
O       2.75       4.90       6.89
O       2.78       5.81      -6.95
O       0.55       5.44      -6.89
O       0.49       4.71       6.90
