54

C       4.43      15.16      12.03
C       3.93      13.16       7.27
C       4.04      16.19      11.15
C       4.67      14.09       7.97
H       4.30      12.15       7.11
C       2.75      16.73      11.23
C       4.15      15.38       8.14
H       5.65      13.85       8.39
N       6.68      17.63       9.17
C       2.89      15.73       7.65
H       2.51      16.74       7.81
N       6.04      17.45      10.37
C       2.16      14.78       6.94
H       1.18      15.02       6.53
N       4.97      16.34       8.80
C       6.45      16.81       6.80
H       7.28      17.50       6.59
N      -1.15      18.13      12.92
C       6.06      16.95       8.22
H       6.74      15.77       6.58
N       0.22      17.99      12.94
C       5.01      16.68      10.14
H       5.61      17.07       6.14
N      -0.65      16.22      11.94
C      -0.79      11.10       9.40
H      -1.70      11.75      11.82
C      -0.78      12.47      10.02
O       2.55      11.35       5.79
H      -1.66      14.00      12.95
C      -1.30      12.63      11.31
O       0.73      12.71       5.63
H       0.16      15.72       9.46
C      -1.28      13.87      11.94
O      -0.21      11.00       8.24
H       0.13      13.45       8.34
C      -0.74      14.97      11.26
O      -1.37      10.16       9.99
H      -3.69      17.71      12.25
C      -0.24      14.84       9.96
H      -3.20      16.59      10.95
C      -0.26      13.58       9.35
H      -3.50      15.98      12.59
C      -3.10      16.82      12.02
H       1.53      14.82      13.78
C      -1.67      17.07      12.32
H       3.83      13.86      13.63
C       0.51      16.85      12.34
H       5.45      14.77      11.99
C       1.85      16.25      12.19
H       2.43      17.51      10.54
C       2.24      15.20      13.04
C       1.92      12.45       5.99
C       3.52      14.67      12.96
C       2.68      13.50       6.74
