47

C      16.91       2.24       2.80
C      17.80       2.85       3.67
C      16.44      -1.38      -1.19
C      16.67      -1.95      -2.44
H      21.07       1.16       6.14
C      16.55       0.81      -2.18
C      16.41       0.01      -1.02
C      16.20       0.17       1.54
C      16.50       0.64       0.30
C      16.77       0.24      -3.43
C      16.87      -1.16      -3.59
H      19.35       4.97       4.99
C      15.34      -1.04       1.84
C      14.30      -0.75       2.94
H      16.73      -3.97      -4.55
N      21.54       3.18       6.57
C      13.42      -1.96       3.24
H      18.21      -0.25      -6.20
N      20.99       4.38       6.18
N      17.76      -3.44      -6.32
N      18.23      -2.26      -6.85
H      19.26       0.07       4.99
H      16.76      -3.03      -2.51
H      16.89       0.89      -4.30
H      17.05       1.59       0.28
H      16.24       2.85       2.19
H      16.38      -2.04      -0.33
H      17.81       3.94       3.74
H      17.66      -1.01       3.47
H      16.53       1.89      -2.08
H      12.86      -2.28       2.35
H      14.02      -2.82       3.58
H      12.69      -1.74       4.03
H      14.82      -0.43       3.86
H      13.68       0.10       2.63
H      14.81      -1.36       0.93
H      15.96      -1.89       2.16
C      20.80       2.21       5.98
C      19.93       4.14       5.39
C      19.75       2.76       5.23
C      17.18      -3.17      -5.13
C      17.92      -1.27      -5.98
C      17.27      -1.80      -4.84
C      18.71       2.10       4.44
C      18.60       0.70       4.39
C      17.68       0.08       3.53
C      16.87       0.84       2.67
