48

H       8.40       7.76       7.97
H      15.18       6.77       8.97
H       7.09       4.89      10.62
H      16.50       9.67       6.35
H      14.17      10.37       5.77
H       9.44       4.22      11.21
H       9.86       8.70       7.04
H      13.74       5.94       9.94
H      10.58      10.87       4.29
H      10.08       9.26       4.88
H      12.74       9.88       3.46
H      12.23       8.28       4.02
H      10.26       8.33       2.43
H      11.79       8.53       1.56
H      10.77       9.94       1.86
H      13.00       3.80      12.73
H      13.68       5.23      11.93
H      13.52       2.41      10.72
H      14.24       3.80       9.91
H      15.96       4.01      11.76
H      16.03       2.42      10.98
H      15.25       2.59      12.56
C      14.35       9.56       6.48
C       9.25       5.02      10.49
C      15.63       9.19       6.80
C       7.96       5.38      10.17
C      14.88       7.56       8.28
C       8.70       6.99       8.68
C      13.53       7.86       8.03
C      10.05       6.71       8.93
C      13.26       8.89       7.08
C      10.33       5.70       9.89
C      12.45       7.13       8.67
C      11.13       7.44       8.29
C      10.88       8.46       7.32
C      12.71       6.14       9.65
C      11.90       9.17       6.74
C      11.70       5.43      10.25
C      10.95       9.90       4.65
C      11.86       9.24       3.62
C      11.13       8.99       2.30
C      13.19       4.26      11.75
C      14.06       3.35      10.89
C      15.40       3.08      11.59
N      15.89       8.19       7.68
N       7.70       6.36       9.28
O      11.68      10.21       5.86
O      11.87       4.48      11.21
