54

H       1.84      14.92      22.22
H       1.83      18.67      20.11
H       1.76      14.97      17.92
H       2.87      10.59      21.79
H       2.97      13.06      21.83
H       0.46      13.18      18.33
H       0.66      16.17      23.62
N       0.24      10.56      18.03
N       0.54      17.23      26.04
H       3.14      20.45      24.04
H       3.16      19.23      21.88
H       3.03      19.24      18.36
N       3.18      20.82      16.30
H       0.57      17.55      14.42
H       0.54      16.24      16.52
O       2.76      20.66      13.64
O       0.89      19.53      13.04
O       2.55       8.39      19.43
O       0.66       8.41      20.66
O       2.83      19.53      27.16
O       0.94      20.59      26.53
H      -0.23       9.70      18.32
H      -0.41      11.16      17.54
H       0.08      17.92      26.64
H      -0.12      16.50      25.79
H       3.41      21.17      15.37
H       3.89      20.96      17.01
C       1.82      19.81      13.88
C       1.60       9.00      20.05
C       1.88      19.76      26.32
C       1.88      16.88      21.31
C       1.83      15.48      21.28
C       1.77      14.78      20.07
C       1.76      15.50      18.87
C       1.80      16.90      18.87
C       1.85      17.58      20.10
C       2.32      11.16      21.05
C       2.37      12.55      21.07
C       1.73      13.30      20.07
C       1.03      12.61      19.07
C       0.94      11.21      19.04
C       1.62      10.49      20.05
C       1.24      17.09      23.71
C       1.20      17.78      24.94
C       1.89      19.01      25.03
C       2.58      19.52      23.93
C       2.58      18.84      22.72
C       1.91      17.61      22.60
C       2.47      18.87      17.51
C       2.52      19.62      16.31
C       1.82      19.11      15.17
C       1.12      17.90      15.29
C       1.12      17.16      16.46
C       1.79      17.65      17.60
