48

C       2.29      12.17       5.90
C       3.02      11.75       4.67
C       4.40      10.95       2.36
C       5.14      10.52       1.14
C       6.36       9.82       1.28
C       6.91       9.50       2.64
C       5.33      10.42      -1.28
C       4.77      10.74      -2.65
C       7.75       7.62      -4.06
C       7.04       8.03      -2.94
C       3.97      12.60       4.09
C       4.65      12.20       2.94
C       8.96       9.72      -4.06
O       9.20       6.87      -6.32
C       8.25      10.13      -2.94
O       2.56      13.33       6.38
C       2.75      10.50       4.09
C       3.44      10.11       2.94
O       1.42      11.36       6.38
O      10.33       8.84      -6.32
H       9.10       9.26       0.85
H       3.47      12.51      -0.85
H       7.56       6.65      -4.52
H       6.29       7.38      -2.49
H       7.03       8.41       2.78
H       3.77      10.30      -2.78
H       4.16      13.57       4.55
H       5.39      12.86       2.48
H       8.22       7.73       0.85
H       2.58      10.98      -0.85
H       9.71      10.37      -4.52
H       8.44      11.10      -2.49
H       7.91       9.94       2.78
H       4.65      11.83      -2.78
H       2.01       9.85       4.55
H       3.24       9.14       2.48
C       8.36       8.67       0.28
C       9.47       8.02      -5.84
C       8.71       8.46      -4.63
C       7.28       9.29      -2.36
C       6.54       9.72      -1.14
H       8.80       8.41      -0.68
H       2.88      11.83       0.68
C       4.62      10.82      -0.13
C       3.32      11.57      -0.29
H       6.27       9.87       3.45
H       5.41      10.37      -3.45
C       7.06       9.42       0.13
