28

N       4.35       1.11       9.53
H       5.21      -0.15       2.85
H       4.90       1.32       4.90
H       5.28      -2.45       1.66
N       4.75      -5.58       2.26
N       4.50      -0.04      10.28
H       4.69       1.62       7.52
N       4.75      -4.48       1.44
H       5.16      -2.00       9.84
F       3.37      -0.95       3.06
H       6.58      -2.87       7.90
F       3.09       0.53       5.29
C       5.19      -0.48       8.17
C       5.13      -0.78       5.69
F       5.27      -6.04       4.46
C       5.54      -1.20       6.96
C       6.18      -2.46       6.98
F       6.91      -4.44       5.96
C       6.28      -3.25       5.83
C       5.75      -2.90       4.57
C       5.24      -1.60       4.56
C       4.59      -0.58       3.65
C       5.22      -3.43       2.13
C       5.54      -3.81       3.44
C       4.43       0.33       4.94
C       4.76       0.86       8.28
C       5.01      -0.99       9.47
C       5.22      -5.18       3.45
