15

C       5.80       5.18      24.15
C       6.78       7.35      24.21
H       3.55       7.47      25.43
N       7.07       9.50      24.55
O       6.66       3.34      22.88
C       6.88       6.00      23.86
C       4.62       5.71      24.76
H       7.78       5.59      23.40
N       5.82       9.22      24.93
H       3.81       5.03      24.97
C       5.59       7.88      24.76
O       4.96       2.99      24.34
C       4.48       7.06      25.04
N       7.66       8.39      24.12
C       5.85       3.74      23.75
