20

H       3.28       0.67       5.74
H       6.90      -3.10       8.62
H       2.78       3.12       5.83
H       3.32      -3.82       6.71
H       4.54       3.51       9.55
H       2.73      -1.39       6.67
H       5.14       1.07       9.62
H       6.48      -0.62       8.69
C       4.62       1.48       8.75
C       4.56      -0.79       7.68
C       4.25       0.65       7.68
C       5.74      -1.29       8.25
C       3.57       1.25       6.61
C       5.99      -2.66       8.21
C       3.29       2.61       6.65
C       3.99      -3.07       7.12
C       4.30       2.83       8.73
C       3.68      -1.71       7.10
N       5.13      -3.53       7.66
N       3.64       3.38       7.69
