26

N       6.07      10.87       8.94
N       5.55      20.38       8.73
H       4.57      11.06       7.53
H       4.56      13.53       7.54
H       7.73      13.29      10.53
H       7.61      10.88      10.33
H       3.93      17.97       7.10
H       7.06      17.72      10.12
H       7.03      20.19      10.17
H       4.03      20.37       7.32
O       7.11      15.67      10.06
O       4.53      15.59       7.58
H       7.66      14.94      10.41
H       4.00      16.32       7.22
C       5.25      11.62       8.18
C       5.25      13.00       8.19
C       6.13      13.70       9.05
C       6.99      12.89       9.83
C       6.94      11.51       9.75
C       6.20      15.16       9.17
C       5.44      16.09       8.47
C       4.66      18.36       7.81
C       5.51      17.55       8.60
C       6.38      18.25       9.47
C       6.37      19.63       9.50
C       4.70      19.74       7.90
