22

O      19.93      -2.30       9.04
O      16.36       2.53      13.28
H      17.85      -0.22       9.03
O      15.30       0.52      13.39
O      21.35      -0.61       9.60
H      16.22       0.90      10.53
H      20.21      -0.52      15.84
H      21.80      -1.70      14.30
H      21.36      -1.72      11.87
C      18.88       0.05      14.28
C      20.02      -0.56      14.77
C      20.91      -1.20      13.90
C      20.66      -1.22      12.55
C      19.50      -0.60      12.01
C      18.55       0.05      12.89
C      17.37       0.61      12.31
C      17.14       0.50      10.95
C      18.06      -0.14      10.09
C      16.27       1.28      13.09
C      19.23      -0.66      10.61
C      20.25      -1.24       9.68
Cl      17.86       0.81      15.45
