16

H       2.52       1.15       7.43
H       6.79      -1.36       7.89
H       2.52      -1.36       7.50
H       6.80       1.16       7.78
C       4.66       2.79       7.57
C       4.66      -3.00       7.73
C       3.45       0.59       7.52
C       5.87      -0.80       7.78
C       3.45      -0.80       7.57
C       5.87       0.59       7.72
C       4.66      -1.50       7.70
C       4.66       1.30       7.60
O       5.78       3.39       7.47
O       3.52      -3.58       7.63
O       5.78      -3.59       7.85
O       3.52       3.37       7.66
