22

C       5.83       2.70       2.10
H       7.51       3.77       1.28
C       6.76       3.75       2.07
H       7.41       5.56       3.04
C       6.69       4.74       3.05
H       4.15       1.89       3.21
C       5.69       4.67       4.03
C       4.90       2.69       3.14
H       6.85       7.22       4.31
N       4.82       3.63       4.08
C       5.47       5.71       5.07
H       6.30       8.86       6.08
N       4.91       7.64       7.03
H       3.57       6.29       7.85
C       6.11       6.95       5.07
H       4.00       4.52       6.13
C       5.81       7.88       6.06
C       4.30       6.44       7.05
O       4.75       0.86       1.03
C       4.55       5.46       6.10
O       6.66       1.61       0.14
C       5.75       1.66       1.03
