72

H       6.22       7.52      26.69
H      12.35      10.56      28.35
H       9.62       6.71      18.63
H       8.96      11.37      36.41
H      10.83       5.46      36.92
H       7.74      12.62      18.11
H      10.00       5.67      34.13
H       8.58      12.40      20.90
H       6.11       6.06      29.09
H      12.46      12.01      25.95
C       8.79       9.66      24.75
C       9.79       8.42      30.29
C       7.69       9.07      24.06
C      10.89       9.01      30.98
C       6.76       8.35      24.82
C      11.82       9.73      30.22
C       9.62      10.58      24.05
C       8.95       7.50      30.99
C       8.61       9.59      17.73
C       9.96       8.49      37.31
C       8.39       8.16      28.24
C      10.19       9.92      26.80
C      10.45       9.56      28.19
C       8.13       8.52      26.85
C       9.53       8.71      28.90
C       9.05       9.37      26.14
C       7.58       7.25      28.96
C      10.99      10.83      26.07
C       7.89       6.91      30.31
C      10.69      11.16      24.73
C       8.61       9.38      16.23
C       9.96       8.69      38.81
C       6.98       8.09      26.17
C      11.59       9.98      28.87
C       7.58       9.16      22.59
C      10.99       8.92      32.45
C       9.36      10.89      22.63
C       9.22       7.19      32.41
C       8.27      10.97      19.71
C      10.31       7.11      35.33
C       8.25      10.80      18.31
C      10.32       7.27      36.73
C       9.03       8.53      18.55
C       9.54       9.55      36.49
C       9.04       8.69      19.94
C       9.53       9.39      35.10
C       8.63       9.90      20.52
C       9.95       8.18      34.52
N       8.56       9.97      21.95
N      10.01       8.10      33.09
Cl       9.60       7.36      20.91
Cl       8.98      10.72      34.13
Cl       5.30       7.71      24.18
Cl      13.28      10.37      30.86
Cl       6.81       5.78      31.04
Cl      11.77      12.30      24.00
O       9.75       9.43      15.68
O       8.82       8.64      39.36
O       7.49       9.16      15.69
O      11.08       8.92      39.35
O       6.75       8.57      21.91
O      11.82       9.50      33.13
O       8.74       6.21      33.00
O       9.83      11.87      22.04
O       9.44       7.38      17.94
O       9.14      10.70      37.10
O      10.68       6.22      37.52
O       7.90      11.85      17.52
O      10.66       5.87      34.85
O       7.91      12.20      20.19
O       6.51       6.66      28.40
O      12.07      11.42      26.64
