13

N       6.66      16.04      21.11
H       8.70      16.49      18.45
C       7.18      14.61      17.11
C       7.01      15.12      18.51
H       5.23      13.94      18.88
C       5.94      14.66      19.28
O       8.35      14.34      16.70
C       5.82      15.13      20.59
O       6.13      14.54      16.40
H       5.03      14.77      21.25
C       7.66      16.52      20.34
H       8.28      17.29      20.80
C       7.88      16.08      19.04
