11

O       7.00       4.48       5.80
O      11.83       3.37       5.20
O       6.72       3.55       7.87
H       9.28       3.92       5.05
C       7.42       4.02       6.91
O      11.71       4.69       7.07
C      11.21       4.02       6.11
C       9.73       4.00       6.04
C       9.37       4.06       8.46
C       8.91       4.04       7.11
N       9.70       4.09       9.58
