14

O       1.35       6.50       3.15
O      -1.35       4.79      -3.15
O       0.85       8.64       2.84
C       0.82       7.43       2.43
C      -0.82       3.86      -2.43
O      -0.85       2.65      -2.84
C       0.24       7.10       1.12
C      -0.24       4.19      -1.12
H      -0.13       7.94       0.52
C       0.23       5.83       0.65
H       0.14       3.36      -0.52
C      -0.23       5.46      -0.65
H       0.62       5.04       1.30
H      -0.62       6.25      -1.30
