26

N       9.00       3.34       7.75
N       8.99      -2.98       7.68
O       8.87      -0.72      12.23
O       8.93       1.55      12.36
H       8.93       1.91       5.51
H       8.77      -2.37       5.16
H       8.99      -1.55       9.92
H       8.90       2.72      10.28
O       8.68      -1.19       3.08
O       8.86       1.08       3.21
O       9.73       3.56       6.77
O       8.33       4.19       8.35
O       9.76      -3.21       8.62
O       8.28      -3.83       7.12
C       8.91       0.45      11.73
C       8.78      -0.09       3.71
C       8.91       0.93       5.99
C       8.83      -1.48       5.79
C       8.93      -1.60       7.16
C       8.98      -0.48       8.03
C       8.97      -0.58       9.44
C       8.92       1.84       9.65
C       8.96       1.96       8.28
C       8.97       0.83       7.41
C       8.83      -0.20       5.21
C       8.93       0.55      10.23
