20

H       2.93      18.58      16.71
H       6.56      20.02      14.83
C       4.64      14.10      11.50
C       3.72      18.47      15.96
C       4.75      19.43      15.87
C       5.76      19.28      14.90
C       5.73      18.20      14.03
C       4.71      17.22      14.10
C       3.71      17.38      15.10
C       4.77      20.53      16.76
C       4.68      16.13      13.21
C       4.66      15.19      12.44
C       4.79      21.47      17.54
C       4.81      22.56      18.47
Cl       2.46      16.21      15.24
Cl       6.96      18.06      12.84
O       3.50      13.64      11.18
O       5.77      13.69      11.08
O       3.67      22.99      18.87
O       5.95      22.99      18.83
