24

O       1.36       5.74       7.31
O       3.05       5.21       6.01
H       2.94      11.57       6.25
H       1.17      11.60       6.21
H       1.22      11.56       3.68
H       2.99      11.60       3.72
C       2.31       8.58       2.03
C       1.85       8.58       7.91
C       1.98       8.46       6.42
C       2.18       8.45       3.52
C       2.04       9.63       5.66
C       2.12       7.26       4.27
C       2.11       9.62       4.27
C       2.03       7.26       5.67
C       2.05      11.14       5.75
C       2.10      11.14       4.17
N       2.01       5.96       3.56
N       2.14       5.96       6.38
O       1.38       9.22       1.43
O       3.36       8.11       1.49
O       0.80       8.12       8.44
O       2.77       9.23       8.50
O       2.79       5.74       2.63
O       1.10       5.21       3.94
