48

H       2.10      12.84      22.30
H       2.26       9.13      20.14
H       1.91      12.84      18.00
C       2.10       7.98      13.85
C       2.33      18.86      20.13
C       1.93       7.96      26.42
C       2.12      10.90      21.36
C       2.10      12.30      21.36
C       2.06      13.01      20.15
C       2.01      12.30      18.94
C       2.09      10.91      18.93
C       2.16      10.21      20.14
C       1.59      16.67      21.15
C       1.49      15.28      21.13
C       2.11      14.49      20.15
C       2.83      15.21      19.17
C       2.90      16.60      19.16
C       2.28      17.35      20.16
C       2.72      10.62      23.81
C       2.65       9.93      25.02
C       1.96       8.73      25.12
C       1.33       8.25      23.98
C       1.38       8.95      22.78
C       2.09      10.16      22.64
C       1.41       8.95      17.48
C       1.41       8.25      16.28
C       2.09       8.73      15.15
C       2.77       9.95      15.30
C       2.76      10.64      16.51
C       2.08      10.17      17.65
O       1.14       7.18      13.64
O       3.06       8.21      13.05
O       1.38      19.44      19.53
O       3.31      19.42      20.71
O       0.95       8.19      27.20
O       2.88       7.15      26.62
F       3.60      17.22      18.19
F       0.98      17.36      22.14
F       3.52      14.55      18.20
F       0.75      14.70      22.10
F       3.28      10.45      26.10
F       3.47      11.75      23.79
F       0.64       7.08      24.04
F       0.69       8.43      21.74
F       0.69       8.42      18.50
F       0.73       7.09      16.25
F       3.48      11.79      16.57
F       3.45      10.51      14.29
