18

O      22.63       9.97      22.85
H      18.34      14.33      19.43
H      18.91      15.77      18.63
C      21.49      10.39      22.45
N      19.07      15.01      19.28
C      20.37      14.68      19.53
O      20.34      17.07      17.93
S      23.02      14.72      19.62
S      19.97      12.28      21.11
H      23.60      12.05      21.45
O      22.63      17.11      17.98
C      21.49      16.60      18.29
C      22.58      12.34      21.20
C      21.49      15.40      19.10
C      21.49      11.61      21.64
C      22.19      13.45      20.43
C      20.79      13.55      20.29
O      20.35       9.86      22.69
