28

C       9.66      20.77      15.07
H       0.89      14.06      20.11
C       3.04      14.00      22.57
C       1.54      13.89      20.95
H       7.29      19.31      19.60
H       2.62      18.23      18.24
C       8.26      20.93      15.18
C       2.50      14.75      21.51
H       5.84      17.96      21.10
H       4.07      19.58      16.74
C       5.46      18.32      20.15
H       6.94      22.00      13.70
C       4.45      19.22      17.70
C       5.80      19.49      18.04
H       3.82      14.29      23.26
H      10.34      20.27      15.76
C       6.67      20.08      17.09
N      10.10      21.35      13.94
C       4.15      17.95      19.75
N       1.52      12.72      21.63
C       6.27      19.07      19.30
N       9.02      21.90      13.29
C       3.65      18.47      18.54
N       2.45      12.79      22.63
C       3.44      16.98      20.49
C       7.41      20.48      16.21
C       2.95      15.99      21.01
C       7.92      21.66      14.02
