50

H       5.97      18.96      23.68
H       7.17      14.83      29.04
C       3.92      20.54      27.67
C       9.31      13.31      25.12
C       2.69      18.64      30.45
C      10.48      15.19      22.31
H       4.42      20.88      26.75
H       4.55      20.76      28.55
H       2.96      21.06      27.77
H       8.69      13.06      24.24
Cl       8.37      16.56      20.25
Cl       4.78      17.20      32.49
H       8.82      12.98      26.05
H      10.29      12.82      25.03
Cl       3.99      18.55      24.89
Cl       9.18      15.30      27.87
H       2.57      17.79      31.12
H       2.19      18.45      29.49
H       2.28      19.54      30.92
H      10.98      15.40      23.27
H      10.60      16.04      21.63
H      10.91      14.29      21.85
O       5.82      19.54      20.96
O       7.33      14.25      31.78
O       8.08      19.62      20.88
O       5.06      14.15      31.83
O       3.62      19.14      27.60
O       9.58      14.72      25.16
O       4.09      18.93      30.21
O       9.09      14.89      22.55
C       6.98      19.12      21.26
C       6.17      14.66      31.47
C       6.03      15.81      30.52
C       7.11      17.97      22.21
C       4.86      17.85      29.87
C       8.31      15.96      22.88
C       5.24      16.94      30.86
C       7.91      16.85      21.89
C       6.57      15.71      29.26
C       6.57      18.08      23.47
C       6.29      16.65      28.24
C       6.86      17.16      24.50
C       5.32      17.66      28.53
C       7.85      16.15      24.23
C       6.88      16.56      26.92
C       6.28      17.26      25.83
C       5.11      18.04      26.12
C       8.06      15.79      26.64
C       4.72      18.34      27.41
C       8.46      15.49      25.34
