42

H       2.00       5.79       1.59
H       4.34       6.44       0.92
H       5.65       5.23       0.91
H       2.23       2.71      -0.87
H       3.33       2.25       1.17
H       0.37       7.06       0.41
H       0.07       6.79      -1.33
H       0.90       8.28      -0.78
H       5.91       5.59      -3.17
H       5.35       3.89      -3.25
H       7.05       4.26      -2.84
H       1.11       4.79      -0.87
H       2.74       0.70      -1.96
H       4.02       0.51      -0.72
H       4.44       0.45      -2.45
H       1.50       4.11       1.33
H       4.91       2.78       0.53
H       4.53       6.30      -1.41
C       1.93       4.85      -5.20
C       4.86       4.08       5.18
C       2.05       5.21      -0.49
C       4.55       5.30      -0.94
C       4.62       5.42       0.59
C       4.36       4.19       3.83
C       3.22       4.57      -1.32
C       0.78       7.21      -0.60
C       2.21       4.88       1.01
C       6.01       4.59      -2.73
C       3.79       0.93      -1.71
C       3.66       4.41       1.27
C       3.84       3.02       0.58
C       3.28       3.08      -0.86
C       3.98       4.29       2.68
C       2.86       4.67      -2.72
C       2.44       4.77      -3.85
O       5.74       4.62      -1.32
O       4.04       2.33      -1.79
O       0.67       5.02      -5.33
O       2.76       4.74      -6.16
O       4.01       4.03       6.13
O       6.12       4.05       5.31
O       2.07       6.62      -0.75
