10

C      -7.09       7.25       9.96
C      -7.78       6.24       9.96
O     -11.06       2.96       9.15
C      -9.25       4.13       9.96
O      -6.61       9.35       9.15
O      -9.73       2.03      10.77
C      -8.56       5.14       9.96
O      -5.28       8.43      10.77
C      -6.26       8.43       9.96
C     -10.08       2.95       9.96
