12

C       7.61      10.03      24.35
O       8.23       6.95      15.01
O       9.39       8.89      14.77
C       7.95       9.55      23.04
C       8.11       9.29      21.85
C       8.23       9.03      20.54
C       8.28       8.83      19.33
C       8.34       8.61      18.01
C       8.40       8.41      16.80
O       7.86      11.25      24.59
O       7.05       9.19      25.15
C       8.67       8.06      15.43
