78

H      10.20      10.72       3.60
H       9.62       7.28      -1.25
H       8.99      11.46       1.30
H      10.79       7.66       2.91
H      11.75       6.93       1.59
H      10.77       4.67       2.16
H      11.63       5.38       3.54
H       9.85       5.41       3.49
H      10.41      11.38      -2.85
H      11.18      12.37      -1.58
H       9.63      14.28      -2.18
H      10.62      13.77      -3.57
H       8.91      13.27      -3.46
H       7.30      12.03      -5.90
H       6.36      12.26      -4.39
H       4.22      11.85      -5.70
H       5.13      13.23      -6.37
H       5.20      11.64      -7.18
H       7.11       5.88       5.67
H       7.02       5.91       3.88
H       5.34       4.31       4.89
H       4.58       5.67       5.75
H       4.55       5.62       3.97
H       6.21       9.00      -1.51
H       5.29       9.52      -2.96
H       4.66      11.65      -1.79
H       4.12      10.24      -0.85
H       5.58      11.14      -0.35
H       5.96       9.15       1.31
H       5.17       8.36       2.70
H       5.01       6.21       1.40
H       4.19       7.54       0.53
H       5.81       6.99       0.01
H      10.76       8.14      -3.35
C       7.38       9.08       6.95
C       8.86      10.03       5.13
C       8.32       9.04      -5.57
C       7.82       9.18       5.51
C       9.53       8.21      -0.70
C       9.17      10.54       0.75
C       9.51       8.15       0.69
C       9.27      10.61      -0.64
C       9.21       9.32       1.43
C       9.32       9.42      -1.39
C       7.97       8.95      -7.02
C       7.85       9.94      -3.35
C       7.71       8.41       3.20
C       7.52       9.80      -4.70
C       9.03       9.35      -2.84
C       7.26       8.36       4.53
C      10.82       6.83       2.18
C      10.76       5.49       2.88
C      10.25      12.21      -2.14
C       9.82      13.46      -2.88
C       6.37      11.77      -5.38
C       8.79       9.25       2.85
C       5.16      12.14      -6.21
C       6.47       6.13       4.80
C       5.15       5.39       4.85
C       5.85       9.87      -2.08
C       5.00      10.78      -1.22
C       5.80       8.18       1.82
C       5.17       7.17       0.89
C       9.84       8.60      -3.71
C       9.36      10.07       3.84
C       9.46       8.44      -5.03
O       7.54       7.94       7.50
O       9.20      11.86      -1.21
O       6.35      10.33      -5.19
O       6.19       7.56       4.86
O       7.00      10.64      -2.52
O       7.08       7.66       2.23
O       7.90      10.07      -7.63
O       6.94      10.14       7.50
O       7.81       7.80      -7.53
O       9.69       6.92       1.29
F      10.27       7.70      -5.85
F       9.45      10.83       6.07
