28

C       0.40       8.06       5.73
H      -5.23      14.67       5.55
C      -3.35      15.23       4.60
C      -0.29      13.01       4.24
H      -3.66      16.25       4.35
C      -2.08      14.77       4.28
N      -3.86      13.12       5.59
H      -1.37      15.42       3.77
C      -1.68      13.47       4.61
N      -3.34      10.66       6.49
H      -1.92       7.43       8.14
C      -2.62      12.66       5.29
N      -2.86       9.47       6.87
H      -0.45       5.43       8.38
C      -2.38      11.29       5.76
N      -1.28      10.52       5.62
H       2.02       6.70       5.30
C      -1.61       9.41       6.32
N       0.84       5.96       6.84
H       0.68       8.78       4.97
C      -0.75       8.26       6.52
H      -0.10      11.99       4.57
C      -1.04       7.31       7.50
H       0.46      13.67       4.68
C      -0.23       6.19       7.63
H      -0.17      13.06       3.14
C       1.15       6.90       5.92
C      -4.22      14.37       5.26
