30

H       4.07      14.07       0.60
H       5.13      15.20      -0.26
H       4.97      15.31       1.51
H       6.84      14.64       2.53
H       8.04      15.29       3.86
H       9.63      15.96       5.59
H      12.11      12.55       4.65
H      10.48      11.88       2.91
H      10.53      15.88       7.47
H      12.26      16.74       9.02
H       7.72      14.74       7.07
H      13.73      13.87       5.33
C       5.02      14.62       0.67
C       6.17      13.64       0.79
C       7.07      13.81       1.87
C       8.24      13.07       2.14
C       9.14      13.52       3.25
C       8.92      14.67       4.03
C       9.82      15.06       5.01
C      11.00      14.32       5.24
C      11.22      13.16       4.48
C      10.31      12.77       3.50
C      11.97      14.78       6.25
C      11.57      15.59       7.32
C      12.52      16.07       8.20
C      14.22      14.97       7.11
C      13.34      14.47       6.16
N      13.83      15.76       8.11
O       8.64      12.03       1.50
O       6.25      12.75      -0.12
