28

O       9.52       9.10      23.42
O       7.26       8.95      23.39
H      12.82       5.32      21.10
H      11.62       5.33      22.42
H      11.47       4.18      21.07
H      11.44       4.21      18.59
H      11.64       5.43      17.30
H      12.81       5.32      18.64
C       8.34       9.01      17.01
H      10.13       7.09      22.37
H      10.10       7.14      17.40
H       6.83      10.40      18.69
H       6.85      10.39      21.19
C       8.40       8.99      22.82
C      11.75       5.21      21.34
C      11.74       5.25      18.38
C       8.41       8.94      21.33
C       9.29       8.06      20.62
C       7.53       9.75      20.63
C      10.13       7.11      21.28
C      10.92       6.21      20.59
C       8.39       8.95      18.51
C       7.52       9.75      19.23
C       9.28       8.07      19.19
C      10.11       7.15      18.49
C      10.91       6.23      19.16
O       7.21       8.81      16.47
O       9.43       9.27      16.40
