40

N      -3.23      -1.80      10.76
N      -2.15      -1.30      10.01
H     -10.03       9.32      10.41
N      -9.86      10.88       9.00
H      -7.33       2.99       9.34
H      -6.20       0.83       9.65
H      -2.58       2.89      10.76
H      -3.70       5.05      10.41
H      -4.53       6.53       8.92
H      -5.66       8.69       8.61
N      -8.97      11.17       7.99
H      -8.22       4.79      10.29
H      -9.38       6.91       9.86
N      -7.12      10.15       6.89
N      -5.29      -0.98      11.62
N      -1.54       0.74       8.96
H      -6.66       9.24       6.82
H      -7.50      10.41       5.98
H      -5.71      -0.12      11.96
H      -5.24      -1.68      12.35
H      -1.74       1.73       8.94
H      -0.55       0.55       9.09
C      -4.10      -0.79      10.94
C      -2.39       0.00       9.77
C      -3.62       0.40      10.33
C      -9.48       9.72       9.56
C      -8.08      10.17       7.90
C      -8.33       9.22       8.92
C      -6.29       2.98       9.66
C      -5.65       1.75       9.85
C      -4.29       1.69      10.22
C      -3.61       2.90      10.41
C      -4.25       4.13      10.22
C      -5.60       4.19       9.84
C      -5.59       6.61       9.14
C      -6.24       7.82       8.93
C      -7.63       7.97       9.18
C      -8.31       6.84       9.66
C      -7.66       5.63       9.89
C      -6.28       5.48       9.62
