30

C      14.26      11.49      14.54
C      15.29      11.21      13.57
H      15.12      10.41      16.20
Br      16.95      10.56      14.23
H      11.41      12.41      17.04
H      14.45      12.14       9.64
Br      16.41      10.89      10.97
H      10.79      14.17      10.59
Cl      10.13      14.33      15.80
Cl       9.95      15.19      12.82
C      15.10      11.44      12.23
C      13.05      10.56      18.03
O      11.25      13.61       8.01
C      12.97      12.56      12.71
C      13.13      12.24      14.08
O      11.88      10.65      18.55
O      13.47      14.10       8.03
C      11.05      13.98      13.30
O      13.99       9.84      18.50
C      11.17      13.63      14.62
C      11.65      13.59      10.92
C      12.20      12.16      16.34
C      13.22      11.29      16.73
C      12.57      13.14       9.97
C      12.43      13.63       8.55
C      11.87      13.36      12.28
C      12.16      12.67      15.04
C      13.71      12.42      10.38
C      14.29      11.02      15.86
C      13.91      12.10      11.73
