36

O       1.77       5.20       5.65
O       4.85      -5.20      -5.65
H       1.80      -4.40      -3.47
H       4.81       4.40       3.47
O       1.38      -2.79      -1.54
O       5.23       2.79       1.54
H       5.28       1.93       1.02
H       1.33      -1.93      -1.02
H       6.37      -2.02      -4.73
O       0.83       2.80       4.92
O       5.78      -2.80      -4.92
H       0.25       2.02       4.73
C       2.89       4.77       5.24
C       3.73      -4.77      -5.24
C       2.61      -3.68      -3.32
C       4.00       3.68       3.32
C       2.49      -2.72      -2.32
C       4.12       2.72       2.32
C       3.53      -1.75      -2.14
C       3.09       1.75       2.14
C       4.62      -1.77      -3.05
C       1.99       1.77       3.05
C       4.75      -2.76      -4.03
C       1.86       2.76       4.03
C       3.72      -3.73      -4.16
C       2.90       3.73       4.16
C       3.18       0.82       1.02
C       3.43      -0.82      -1.02
I       6.02      -0.19      -3.21
I       0.59       0.19       3.21
N       4.55      -0.22      -0.53
N       2.06       0.22       0.53
N       4.41       0.60       0.48
N       2.20      -0.60      -0.48
O       2.58      -5.12      -5.67
O       4.03       5.12       5.67
