32

H       5.23       8.15       5.41
H       5.18       7.72       2.94
H       9.44       7.07       2.99
H       5.14       7.09      -2.84
H       9.43       7.39      -2.76
H       5.17       7.46      -5.32
H       9.44       7.77      -5.24
H       9.46       7.48       5.47
C       7.36       7.99       7.07
C       7.29       7.07       1.38
C       6.08       7.24      -3.37
C       7.32       7.84      -6.91
C       6.14       7.91       4.87
C       8.54       7.54       4.90
C       6.12       7.68       3.50
C       8.52       7.31       3.53
C       7.31       7.36       2.82
C       7.35       7.83       5.58
C       8.50       7.41      -3.33
C       7.28       7.00      -1.20
C       6.09       7.45      -4.75
C       8.51       7.62      -4.70
C       7.31       7.64      -5.42
C       7.28       7.22      -2.65
N       8.46       6.83       0.75
N       6.09       6.93       0.76
N       8.45       6.78      -0.57
N       6.09       6.91      -0.56
O       6.27       8.33       7.63
O       8.46       7.74       7.66
O       6.21       7.75      -7.51
O       8.45       8.07      -7.45
