24

N      34.66      18.22      14.78
N      42.60      13.64      21.26
H      38.25      19.08      16.67
H      35.71      14.69      16.67
O      39.34      17.16      18.02
O      37.92      14.70      18.02
H      41.55      17.17      19.37
H      39.02      12.78      19.37
C      36.48      17.99      15.98
C      37.69      18.15      16.66
C      38.15      17.03      17.34
C      35.77      16.77      15.98
C      36.24      15.64      16.66
C      37.44      15.80      17.34
C      41.49      15.10      20.07
C      41.02      16.22      19.38
C      39.83      16.07      18.71
C      40.79      13.87      20.07
C      39.57      13.72      19.38
C      39.11      14.83      18.71
N      35.75      18.87      15.22
N      34.65      16.96      15.22
N      42.61      14.90      20.83
N      41.51      12.99      20.83
