15

C       0.03       1.69      26.45
H      -0.17       1.65      27.52
O       2.14       0.55      27.86
C       0.66       0.37      26.00
H      -0.01      -0.46      26.25
H       1.07       3.05      25.08
O       2.90      -0.50      25.99
C       0.51       4.20      26.79
H       1.93       2.69      26.58
H       0.82       0.34      24.91
C       2.01       0.11      26.67
O       0.00       4.17      27.95
C       0.94       2.89      26.16
O       0.74       5.25      26.09
H      -0.94       1.80      25.95
