26

H      10.73      13.81      21.52
O       6.65      17.18      12.92
O       8.64      11.61      20.32
H       6.81      14.86      13.53
C       8.02      15.46      17.18
C       7.88      16.56      16.26
C       7.13      15.02      14.56
O       8.85      16.43      21.39
O       8.33      14.07      21.99
O      10.55      14.71      21.13
C       7.05      13.99      15.46
C       7.64      12.40      20.22
O       8.24      18.37      14.01
C       7.46      17.38      13.88
O       6.53      12.32      20.83
C       7.47      14.16      16.82
C       7.51      16.32      14.94
C       7.80      13.48      19.17
C       8.68      15.61      18.44
C       8.47      14.69      19.46
C       7.40      13.19      17.87
S       9.00      15.03      21.15
Cl       6.82      11.57      17.63
Cl       7.91      18.17      16.85
Cl       9.90      16.80      18.65
Cl       6.40      12.52      14.80
