34

H       9.24       1.08      11.24
H       5.30      -1.49      12.46
H       9.39      -1.24      11.12
H       8.45       1.28      13.62
H       6.74       0.99      13.99
H       9.56      -0.49      14.48
H       9.43      -2.00      13.85
H       7.23      -1.00      15.39
H       6.07      -1.46      14.33
H       8.03      -1.34       9.99
H       5.73      -1.65      10.77
H       8.08       1.00       9.90
H       5.58       0.67      10.47
H       5.04       0.82      12.15
C       7.05       5.22      11.77
C       7.63      -5.58      12.04
C       8.29       0.63      10.92
C       5.84       0.42      11.51
C       5.99      -1.11      11.69
C       8.37      -0.91      10.95
C       7.66      -4.14      12.09
C       7.17       1.12      11.87
C       7.45      -1.48      12.06
C       7.84      -0.82      13.43
C       7.56       0.71      13.32
C       7.59      -2.92      12.12
C       7.05       2.56      11.81
C       7.00       3.78      11.78
N       9.27      -1.01      13.66
N       7.07      -1.49      14.51
O       8.22       5.72      11.74
O       5.95       5.86      11.81
O       8.75      -6.20      12.04
O       6.48      -6.11      11.98
