24

H      13.00       2.99       5.64
H      13.90       5.31       1.41
H      13.91       7.75       1.42
C      13.34       3.64       3.50
C      13.34       5.10       3.50
C      13.34       7.96       3.50
C      13.34       9.42       3.50
H      13.98      10.08       1.43
H      13.68       2.99       1.35
H      12.77       5.31       5.58
H      12.77       7.75       5.58
N      13.22       1.49       4.17
N      13.54      11.58       2.84
H      12.69      10.08       5.57
N      13.45       1.49       2.82
N      13.13      11.58       4.15
C      13.15       2.77       4.58
C      13.65       5.84       2.34
C      13.65       7.23       2.34
C      13.67      10.29       2.44
C      13.52       2.77       2.41
C      13.02       5.84       4.65
C      13.02       7.23       4.65
C      13.01      10.29       4.55
