16

S      17.22      14.70      12.38
S      20.12      17.44      11.14
O      17.52      12.42      13.94
O      19.80      12.35      14.14
C      19.81      14.93      12.58
C      17.52      17.18      10.90
C      18.76      14.11      12.95
C      18.58      18.00      10.57
H      16.49      17.40      10.62
C      19.37      16.06      11.84
C      17.97      16.06      11.65
Br      21.63      14.66      12.97
O      19.58      19.96       9.76
O      17.38      19.54       9.26
C      18.71      12.86      13.73
C      18.50      19.26       9.81
