41

H       5.58       6.35       1.79
H       6.72      10.41       2.72
H       4.09       7.00      -5.44
H       3.18       7.33      -4.04
H       8.13       9.67      -5.87
H       9.13       9.63      -4.52
H       5.15      10.99       5.36
H       4.63       5.02       3.53
H       4.54       5.58       5.20
H       6.84      10.94       4.97
H       6.27      10.03       6.26
H       4.49       7.28      -0.75
H       3.92       6.45      -2.12
H       8.66      10.78      -2.67
H       8.31      10.09      -1.17
C       5.95       8.49      -6.21
C       4.77       7.89       6.14
C       5.66       7.16       2.52
C       6.31       9.45       3.03
C       5.29       6.93       3.85
C       5.91       9.23       4.34
C       5.35       8.02       4.78
C       6.13       8.41       2.09
C       6.35       8.61       0.70
C       6.40       8.68      -0.52
C       5.26       7.92      -2.52
C       7.28       9.29      -2.74
C       5.15       7.84      -3.92
C       7.18       9.21      -4.14
C       6.10       8.50      -4.73
C       6.32       8.65      -1.93
N       4.09       7.07      -4.42
N       8.20       9.85      -4.87
N       4.87       5.69       4.24
N       6.07      10.34       5.28
N       4.27       7.33      -1.74
N       8.39       9.93      -2.18
O       5.50       7.42      -6.75
O       6.27       9.53      -6.87
O       4.74       6.73       6.69
O       4.33       8.95       6.68
