54

H      11.34       5.74      22.34
H       9.46      12.08      25.14
H      12.13       9.16      18.48
H       8.66       8.74      29.00
H      11.91       9.12      15.97
H       8.88       8.75      31.51
H       7.66       8.68      16.34
H      13.14       9.01      31.14
H       7.87       8.70      18.84
H      12.93       9.02      28.63
H      11.84       4.59      24.41
H      11.68       5.41      25.98
H       8.94      13.22      23.08
H       9.09      12.41      21.50
C      11.16       9.05      18.00
C       9.63       8.80      29.48
C      11.04       9.03      16.61
C       9.76       8.81      30.86
C       9.78       8.89      16.01
C      11.02       8.89      31.46
C       8.64       8.78      16.82
C      12.16       8.96      30.66
C       8.75       8.79      18.21
C      12.05       8.96      29.27
C      10.01       8.93      18.79
C      10.78       8.88      28.69
C       9.65       8.85      14.51
C      11.15       8.92      32.95
C      10.22      10.09      26.65
C      10.58       7.73      20.83
C      10.99       7.70      26.57
C       9.80      10.11      20.91
C      10.88       7.71      25.12
C       9.90      10.10      22.36
C      10.45       8.89      24.45
C      10.34       8.93      23.03
C      10.12      10.06      25.18
C      10.68       7.76      22.30
C      11.21       6.55      24.36
C       9.58      11.27      23.12
C      11.10       6.61      22.95
C       9.70      11.20      24.53
N      10.66       8.89      27.25
N      10.14       8.93      20.23
N      11.62       5.40      24.96
N       9.16      12.41      22.53
O      10.73       8.89      13.84
O      10.06       8.96      33.62
O       8.47       8.79      14.03
O      12.33       8.91      33.43
O       9.95      11.08      27.33
O      10.87       6.75      20.15
O      11.35       6.71      27.23
O       9.43      11.10      20.25
