38

S      -1.53       2.63       3.08
S       1.55      -2.02      -3.51
O      -5.57       0.61       0.87
O       5.58      -0.61      -0.87
H       3.35       1.43       1.72
H       1.18       2.21       2.64
H       3.48      -0.89      -1.87
H      -3.33      -1.14      -1.92
H      -1.16      -1.75      -2.96
H      -3.46       1.46       1.47
O       5.61       0.73       0.97
O      -5.59      -0.67      -1.01
H      -3.20       1.39       3.63
H       3.22      -2.96      -2.52
O      -2.28       1.48       3.95
O      -0.54       3.18       3.96
O      -2.55       3.46       2.47
C       5.02       0.11       0.02
O       0.56      -2.66      -4.31
O       2.56      -1.17      -4.08
C      -5.01       0.02      -0.11
O       2.30      -3.22      -2.72
C       2.81       0.92       0.92
C       1.41       0.96       0.87
C       0.66       1.67       1.85
C       2.86      -0.42      -1.10
C       1.47      -0.44      -1.18
C       0.72      -1.15      -2.19
C      -2.80      -0.55      -1.17
C      -1.40      -0.49      -1.19
C      -0.64      -1.18      -2.19
C      -2.85       0.90       0.77
C      -1.45       0.96       0.81
C      -0.71       1.68       1.82
C       3.53       0.22      -0.05
C       0.72       0.26      -0.17
C      -3.51       0.12      -0.19
C      -0.70       0.25      -0.18
