16

F      18.38       8.75       3.05
C      18.41      14.71       2.02
O      18.40      14.56       0.75
C      18.35      13.36       4.19
O      18.40       7.30       5.49
O      18.44      15.81       2.66
C      18.38      13.47       2.81
C      18.34      12.01       4.59
C      18.34       8.41       6.11
C      18.36      11.12       3.50
C      18.33       9.63       5.30
C      18.36       9.77       3.92
S      18.31      11.18       6.10
H      18.35      14.23       4.85
S      18.39      11.94       1.99
O      18.30       8.59       7.38
