12

F      15.16       7.75      15.34
C      17.43       8.16      14.66
C      15.90       7.07      18.18
F      18.13       7.37      17.27
C      16.40       8.08      15.83
O      16.42       7.41      19.28
F      16.26       9.31      16.45
O      17.27       7.27      13.78
C      16.83       7.07      16.93
O      14.72       6.70      17.93
F      16.86       5.80      16.39
O      18.30       9.07      14.75
