14

H       8.55       6.80      13.59
O       6.79       6.82      18.86
O       9.01       7.35      18.76
O       7.07       5.82       8.89
O       4.85       6.24       9.16
H       5.68       5.86      14.25
C       7.88       7.04      18.24
C       6.02       6.02       9.59
C       7.84       6.91      16.80
C       6.20       5.98      11.02
C       6.53       6.11      13.62
C       7.68       6.55      14.21
C       7.79       6.73      15.60
C       6.37       6.02      12.23
