15

N       3.63       7.08       6.23
N       4.41       5.08       5.87
C       5.95      10.43       7.68
N       3.32       5.85       5.87
C       4.97       7.03       6.45
C       5.77       8.16       6.91
H       7.64       7.07       6.96
H       8.90       9.01       7.93
H       4.12       9.56       6.96
C       7.14       8.02       7.15
N       7.26      10.27       7.97
N       5.47       5.79       6.23
H       5.52      11.39       7.93
C       7.85       9.09       7.68
C       5.18       9.41       7.15
