24

C       2.86      18.50      13.66
O       2.24      14.93      14.04
H       4.63      15.60      13.99
H       8.94      21.01      11.71
C       3.12      17.14      13.85
H       6.53      17.18      13.65
H       7.21      18.82      11.50
C       4.43      16.66      13.82
C       8.10      20.72      12.33
H       5.00      20.80      15.33
C       5.49      17.53      13.63
C       7.25      19.65      12.20
C       3.92      19.38      13.43
O       0.81      16.64      14.27
H       5.78      22.40      15.19
C       6.63      20.90      13.95
C       1.98      16.19      14.08
N       7.70      21.48      13.41
H       6.59      21.07      16.07
C       5.95      21.31      15.20
N       6.32      19.78      13.22
H       3.73      20.44      13.24
C       5.23      18.89      13.43
H       1.83      18.86      13.68
