57

C      21.40      10.00       1.23
C      20.48       8.96       1.02
C      19.53       9.13       2.04
C      23.66       2.07      -3.14
C      22.94       2.38      -4.31
C      23.23       1.69      -5.49
C      24.21       0.70      -5.51
C      24.91       0.37      -4.34
C      24.62       1.07      -3.16
H      27.10      -0.50      -6.25
H      25.56      -1.84      -2.43
H      16.92       5.14     -11.11
H      14.12       3.23      -8.41
H      22.28      10.27       0.66
H      18.65       8.54       2.28
H      23.44       2.62      -2.23
H      22.65       1.92      -6.39
H      24.41       0.15      -6.44
H      25.18       0.84      -2.25
C      17.58       4.60      -5.92
C      18.90       4.22      -6.19
C      19.25       3.85      -7.50
C      18.30       3.87      -8.51
C      16.96       4.21      -8.24
C      16.62       4.57      -6.92
H      17.32       4.90      -4.90
H      20.28       3.56      -7.71
H      18.58       3.58      -9.53
H      15.59       4.86      -6.70
C      20.65       5.99      -2.06
C      19.42       6.54      -1.67
C      21.82       6.42      -1.42
C      19.36       7.48      -0.65
C      21.76       7.39      -0.42
C      20.53       7.93      -0.02
H      18.51       6.22      -2.18
H      22.78       5.99      -1.72
H      22.68       7.72       0.07
N      20.99       3.41      -5.29
N      19.72       5.00      -4.06
N      21.80       4.21      -3.21
H      18.39       7.90      -0.35
C      21.86       3.39      -4.27
N      27.11      -2.51      -3.72
N      27.59      -2.08      -4.93
C      19.92       4.21      -5.13
C      20.72       5.01      -3.16
C      26.87      -1.01      -5.32
C      25.91      -0.70      -4.34
C      26.11      -1.68      -3.35
N      14.03       3.86     -10.43
N      14.92       4.46     -11.29
N      19.85      10.20       2.80
N      21.01      10.75       2.29
C      16.08       4.65     -10.62
C      15.95       4.20      -9.30
C      14.64       3.71      -9.24
