61

H       5.15      14.70      16.77
H      -4.19      17.40      19.76
H       2.76      12.59      23.54
H      -0.39      20.73      22.42
H      -0.57      17.97      25.74
H      -1.54      12.62      23.82
H      -2.34      14.12      17.65
H       2.84      10.68      25.15
H      -1.44      10.70      25.42
H       5.45      18.96      17.35
H      -4.28      14.07      16.08
H       3.26      14.61      18.40
C       6.53      16.85      15.97
C      -0.50      21.60      24.39
C      -0.56      18.99      25.36
C      -0.61      20.07      26.23
C      -0.59      12.18      24.10
C      -0.53      11.12      24.99
C       3.93      17.95      18.51
C       4.97      18.01      17.59
C      -3.17      14.83      17.76
C      -4.25      14.80      16.89
C       0.10      16.13      21.32
C      -6.35      15.73      15.93
C       3.29      16.73      18.82
C       5.41      16.83      16.96
C      -3.13      15.78      18.80
C      -5.30      15.73      17.00
C       0.60      12.74      23.58
C       0.71      10.59      25.39
C      -0.46      19.22      23.97
C      -0.57      21.39      25.77
C       1.28      16.42      20.47
C       0.34      14.88      22.08
C       3.75      15.56      18.17
C      -1.08      15.97      20.44
C      -0.13      17.24      22.27
C       2.21      16.62      19.72
C      -0.31      18.14      23.06
C       0.51      13.88      22.74
C      -2.02      15.86      19.69
C      -0.49      22.55      26.73
C       0.72       9.52      26.42
C       4.80      15.61      17.26
C      -4.20      16.68      18.95
C      -5.27      16.65      18.06
C       1.84      12.17      23.95
C       1.89      11.11      24.84
C      -0.45      20.54      23.49
Br       3.36      19.55      19.36
Br      -6.70      17.86      18.40
Br      -0.46      23.38      23.71
Br      -0.68      19.73      28.10
O       6.96      18.00      15.56
O      -6.73      16.86      15.50
O      -6.76      14.59      15.50
O       6.98      15.73      15.58
O       0.67      22.93      27.05
O      -0.40       9.11      26.85
O       1.86       9.08      26.84
O      -1.60      23.04      27.15
