28

H      -3.55       7.26       9.74
H      -5.21       7.44      10.94
C      -7.92       8.13      11.02
C      -0.83       7.58       9.98
C      -8.12       6.19      12.06
C      -0.81       5.79      11.26
H      -7.64       8.98      10.41
H      -1.06       8.40       9.31
H      -8.01       5.20      12.49
H      -1.03       4.90      11.85
C      -3.26       3.93      10.70
C      -6.17       4.17      10.24
N      -9.06       8.15      11.75
N       0.39       7.49      10.55
H      -3.84       3.12      10.24
H      -2.23       3.85      10.33
H      -3.25       3.74      11.79
H      -5.88       3.65       9.32
H      -6.07       3.44      11.06
H      -7.23       4.44      10.16
N       0.39       6.38      11.35
N      -9.17       6.96      12.40
C      -7.26       6.89      11.19
C      -1.65       6.51      10.39
C      -3.86       5.28      10.38
C      -5.33       5.40      10.46
C      -3.07       6.36      10.11
C      -5.89       6.59      10.81
