45

N      23.45       2.50      19.04
N      25.35       2.36      20.49
N      23.45       0.96      20.87
N      29.24      -0.85      26.20
N      29.32       0.51      26.37
H      28.31       2.18      25.51
H      28.06      -2.12      24.96
N      17.73      -3.18      19.03
N      17.45      -2.78      20.32
N      25.25       7.85      14.58
N      26.41       7.28      14.13
H      23.98       7.49      16.26
H      27.65       5.69      14.81
H      18.09      -1.18      21.56
H      19.00      -2.42      17.50
N      19.83       0.53      18.21
N      20.88       1.29      18.28
N      19.85      -0.31      19.32
H      21.20      -0.60      20.97
N      25.68      -0.64      23.92
N      24.86      -0.30      22.97
N      26.75       0.24      23.87
H      27.29       1.92      22.63
H      23.80       4.52      17.10
C      22.89       1.53      19.78
C      24.69       2.86      19.44
C      24.68       1.41      21.17
N      26.96       5.09      17.80
N      26.67       4.23      18.72
C      28.44       1.10      25.54
C      27.78       0.11      24.81
C      28.31      -1.11      25.26
N      25.81       5.30      17.06
C      24.87       7.20      15.71
C      25.81       6.20      15.98
C      26.76       6.28      14.96
C      18.16      -1.67      20.59
C      18.92      -1.35      19.47
C      18.62      -2.31      18.51
C      21.60       0.97      19.41
C      20.94      -0.05      20.08
C      25.35       0.80      22.31
C      26.57       1.15      22.88
C      25.35       3.86      18.61
C      24.79       4.55      17.54
