32

O      27.09       8.25      11.99
O      27.57       9.32      10.04
O      27.09      20.35      18.61
H      26.88      17.93      18.43
O      27.57      21.42      16.66
H      26.88       9.71      13.93
H      27.78      19.96      14.72
H      27.78      11.74      10.22
O      27.83      17.81      13.26
O      26.82      15.54      17.41
O      27.83      14.13      11.24
O      26.82      11.85      15.39
H      27.79      16.89      12.94
H      26.86      14.78      16.80
H      27.79      14.89      11.85
H      26.86      12.77      15.71
C      27.33       9.29      11.29
C      27.33      20.38      17.36
C      27.33      19.07      16.64
C      27.07      17.89      17.36
C      27.07      16.67      16.69
C      27.33      16.61      15.30
C      27.58      17.82      14.60
C      27.58      19.04      15.26
C      27.33      15.37      14.62
C      27.33      14.29      14.03
C      27.33      13.06      13.35
C      27.07      11.85      14.05
C      27.07      10.63      13.38
C      27.33      10.60      12.01
C      27.58      11.77      11.29
C      27.58      12.99      11.95
