30

H       1.78      12.37      15.48
H       6.01      12.06      16.08
H       5.54      15.40      12.62
H       1.30      15.87      12.19
S       0.23      13.85      13.72
S       7.09      13.57      14.05
H      -1.00      13.49      15.38
H       8.32      15.22      13.65
O       2.52      17.05      10.63
O       4.76      17.23      10.97
C       3.61      16.76      11.23
O       4.79      10.72      17.50
O       2.55      10.55      17.13
C       3.70      11.05      16.91
C       2.79      12.71      15.24
C       5.18      12.54      15.57
C       5.40      13.48      14.60
C       4.33      14.13      13.92
C       4.53      15.12      12.92
C       2.13      15.39      12.69
C       1.91      14.41      13.63
C       2.99      13.74      14.28
C       3.86      12.13      15.89
C       3.45      15.74      12.32
O      -0.61      14.88      13.11
O       0.16      12.52      13.20
O       7.38      15.13      14.03
O       7.92      12.96      15.09
O       7.16      13.02      12.72
O      -0.05      13.85      15.28
