20

C       5.90       8.73      15.51
C       5.80       7.54      14.76
O       5.67       6.38      22.26
O       5.78       8.63      10.07
O       5.79       6.35      10.16
O       5.72       8.66      22.17
H       5.51       5.33      17.35
H       6.01       9.68      14.98
H       5.59       5.39      14.86
H       5.94       9.61      17.47
C       5.68       7.50      21.65
C       5.72       7.47      17.57
C       5.66       7.45      20.21
C       5.84       7.55      12.12
C       5.80       7.51      10.68
C       5.83       7.56      13.34
C       5.68       7.44      18.99
C       5.66       6.31      15.44
C       5.86       8.69      16.89
C       5.62       6.27      16.83
