16

C      27.33      10.56      17.56
O      28.50      10.09      17.34
O      26.22      10.07      17.18
C      27.52      17.01      21.41
S      28.86      12.44      18.87
S      25.93      15.16      20.12
H      29.57      15.17      20.56
O      26.41      17.63      21.54
F      24.98      12.40      18.42
O      28.66      17.38      21.88
C      26.27      12.64      18.71
C      28.54      14.94      20.31
C      27.32      11.81      18.34
C      27.48      15.75      20.65
C      28.09      13.80      19.59
C      26.69      13.78      19.42
