34

O      12.69      10.50       8.18
O      13.99      19.74       9.37
O      13.82      19.66       7.10
O      14.96      10.72       8.20
H      10.12      13.79       5.67
H      11.43      13.56       4.49
H      15.31      12.99       9.19
H      10.18      12.32       4.70
H      12.20      11.52       5.83
H      10.98      11.84       7.02
H      17.20      16.57      11.27
H      18.05      16.75       9.72
H      18.14      18.03      10.95
H      16.58      18.78       9.21
H      15.70      18.51      10.69
H      16.14      15.24       9.81
H      11.83      15.07       6.31
H      12.66      17.32       6.92
C      14.53      13.46       8.58
C      12.61      13.22       7.07
C      12.57      14.60       6.96
C      13.77      11.18       8.11
C      14.02      19.13       8.25
C      13.63      12.65       7.91
C      14.26      17.66       8.31
C      15.36      15.71       9.20
C      15.28      17.09       9.15
C      13.41      16.85       7.57
C      11.64      12.34       6.30
C      10.80      13.05       5.24
C      16.25      17.98       9.89
C      17.47      17.29      10.49
C      13.46      15.44       7.66
C      14.47      14.87       8.50
