16

C      24.87       9.47      27.66
C      26.79      10.60      29.39
C      24.75       9.37      29.06
C      26.93      10.72      27.99
C      25.69       9.92      29.92
C      25.98      10.16      27.16
F      23.71       8.71      29.63
H      27.79      11.25      27.59
C      23.89       8.87      26.70
O      24.20       8.94      25.46
O      28.80      11.78      29.76
O      27.59      11.08      31.56
O      22.83       8.35      27.18
C      27.80      11.20      30.31
H      25.56       9.83      31.00
H      26.08      10.23      26.07
