20

H       7.78      10.22      13.13
H       6.93       8.40      11.63
H       3.50       8.10      14.26
H       4.56       9.83      15.69
H       3.61       5.92      13.47
H       2.82       4.16      11.91
H       4.47       6.10       8.64
H       5.33       7.94      10.05
C       6.82       9.74      13.32
C       6.33       8.75      12.48
C       5.10       8.14      12.78
C       4.46       8.53      13.96
C       5.03       9.52      14.76
C       4.55       7.10      11.90
C       3.81       6.01      12.40
C       3.38       5.02      11.54
C       4.29       6.10       9.72
C       4.77       7.13      10.51
N       6.18      10.14      14.43
N       3.63       5.04      10.21
