36

C      10.76       0.74       7.89
C      10.76       1.60       8.75
N      16.42       8.70      11.29
N      15.85       9.26      10.16
H      14.17       8.77       8.96
H      15.97       7.03      12.50
N      10.18      -1.50       5.10
N      11.31      -2.06       5.66
N       5.13       4.11      15.89
N       5.70       2.99      16.44
H       8.98       0.18       5.58
H      12.53      -1.58       7.33
H       5.58       5.33      14.22
H       7.39       1.79      15.95
H       9.00       1.84      10.75
H      12.53       3.59       8.99
H      10.78       5.35      12.53
C      14.78       8.52       9.82
C      14.63       7.45      10.74
C      15.70       7.63      11.64
C       9.84      -0.42       5.83
C      10.75      -0.26       6.89
C      11.66      -1.32       6.73
C       5.85       4.46      14.81
C       6.92       3.57      14.64
C       6.78       2.65      15.70
C       9.77       3.59      11.76
C       9.77       2.61      10.76
C      10.76       2.60       9.76
C      11.76       3.59       9.76
C      11.77       4.59      10.76
C      10.78       4.58      11.75
C       7.91       3.58      13.64
C       8.77       3.59      12.77
C      13.64       6.45      10.75
C      12.78       5.59      10.76
