31

C      26.16      16.09      11.38
H      30.38      16.39      10.69
C      24.02      15.22      12.33
H      25.69      14.09      14.08
C      28.38      13.99      14.36
C      28.24      17.00      10.39
H      29.36      15.68      12.50
H      25.58      16.56      10.58
C      23.12      15.46      13.36
H      23.31      15.76      14.38
C      22.00      14.86      11.60
C      28.84      12.82      16.12
H      21.17      14.59      10.95
H      28.79      12.38      17.11
C      29.60      13.36      14.16
C      29.88      17.78       9.14
H      30.24      13.35      13.29
C      27.73      17.86       9.43
H      30.88      17.94       8.74
H      26.71      18.18       9.27
N      23.29      14.84      11.22
C      25.48      15.35      12.35
N      21.85      15.24      12.88
C      26.22      14.71      13.36
N      27.91      13.63      15.61
C      27.62      14.79      13.40
N      29.89      12.61      15.28
N      28.76      18.34       8.66
N      29.61      16.98      10.18
C      28.27      15.58      12.44
C      27.56      16.22      11.42
