17

C      24.68       9.39      13.99
O      24.47      10.61      14.37
O      25.67       8.68      14.36
C      20.86       7.00      10.38
C      21.66       8.94      11.73
H      23.09       5.86      11.42
H      20.80       9.51      11.38
H      24.73       6.93      12.98
O      22.33      10.82      12.97
O      21.09       5.79      10.04
O      19.87       7.71      10.01
C      23.70       8.80      13.06
C      21.85       7.62      11.31
C      22.57       9.55      12.60
C      22.96       6.88      11.76
H      23.07      11.07      13.59
C      23.87       7.47      12.62
