13

N      11.35       4.52       8.08
H      11.86       4.59      10.16
O      13.81       4.93       5.41
H      11.84       3.33       6.42
C      12.87       5.17       6.21
H      13.02       5.36       9.10
O      12.30       6.32       6.31
C      11.31       6.56       9.51
O      11.72       7.22      10.51
C      12.33       4.05       7.09
O      10.41       6.99       8.72
C      11.94       5.20       9.25
H      13.18       3.54       7.57
