32

H       6.80       5.84       5.32
H       2.51       5.85       5.26
H       6.84       6.50       2.90
H       2.53       6.50       2.84
H       6.86       6.45      -2.82
H       2.55       6.49      -2.85
H       6.86       5.86      -5.25
H       2.57       5.87      -5.28
C       4.62       5.45       6.89
C       4.74       5.57      -6.88
C       5.87       5.99       4.76
C       3.45       5.99       4.73
C       5.89       6.36       3.42
C       3.46       6.35       3.39
C       4.69       6.54       2.72
C       4.65       5.80       5.43
C       4.70       6.87      -1.27
C       4.70       6.88       1.30
C       5.92       6.32      -3.37
C       3.49       6.34      -3.38
C       5.92       6.00      -4.71
C       3.50       6.00      -4.73
C       4.72       5.85      -5.41
C       4.70       6.52      -2.69
N       3.52       7.11       0.67
N       5.88       7.08       0.67
N       3.52       7.11      -0.65
N       5.88       7.07      -0.64
O       5.73       5.18       7.46
O       3.48       5.45       7.45
O       5.88       5.66      -7.45
O       3.64       5.32      -7.46
