20

H      13.50      15.71       4.46
H      13.14      13.60       6.34
H      11.44      12.27       4.48
H      13.71      10.91       3.46
H      14.07      13.02       1.57
H      15.77      14.35       3.44
C      11.59      14.52       2.37
C      12.62      13.90       3.24
C      13.56      14.64       4.24
C      13.33      13.48       5.27
C      12.41      12.73       4.26
C      13.66      11.98       3.67
C      13.88      13.14       2.64
C      14.80      13.89       3.66
C      14.59      12.72       4.68
C      15.64      12.12       5.55
O      10.62      13.76       2.00
O      11.77      15.74       2.03
O      16.59      12.90       5.91
O      15.49      10.90       5.88
