13

H       0.49      19.07      16.62
N      -0.99      21.90      17.56
H      -2.16      22.99      13.68
C      -1.88      22.04      15.57
H       0.44      19.75      18.28
N      -1.90      22.59      16.79
C      -2.75      22.46      14.44
C       0.58      19.99      17.21
N      -0.98      21.03      15.52
H      -3.56      23.11      14.80
H       1.59      20.39      17.06
H      -3.16      21.57      13.95
C      -0.45      20.96      16.77
