32

H       3.43      10.38      17.11
H       3.40       8.25      18.41
H       1.02      12.25      20.15
H       1.02       2.24      21.67
H       3.43       4.11      24.72
H       3.40       6.24      23.42
C       2.19       1.77      24.06
C       2.19      12.72      17.76
C       2.22      11.45      18.54
C       2.91      10.32      18.06
C       2.90       9.14      18.78
C       2.25       9.06      20.04
C       1.60      10.22      20.51
C       1.56      11.39      19.77
C       2.26       7.82      20.72
C       2.26       6.66      21.10
C       2.25       5.43      21.78
C       1.60       4.27      21.31
C       1.56       3.10      22.05
C       2.22       3.04      23.28
C       2.91       4.17      23.76
C       2.90       5.35      23.04
N       0.88      10.21      21.80
N       0.88       4.28      20.02
O       1.24       0.96      23.83
O       3.13       1.58      24.92
O       1.24      13.53      18.00
O       3.13      12.91      16.91
O       0.94       9.18      22.48
O       0.24      11.23      22.11
O       0.94       5.31      19.34
O       0.24       3.26      19.71
