12

N       8.80       6.28      12.03
N      13.35       6.31      11.99
H       9.76       8.50      13.98
H      12.40       4.29       9.83
S       9.61       5.24      11.01
O       9.08       7.90      13.63
C      11.00       6.81      12.48
O      13.07       4.65      10.44
C       9.62       7.04      12.74
C      12.53       5.55      11.27
C      11.15       5.81      11.51
S      12.54       7.34      13.03
