19

H      11.44      13.40      22.57
H      13.95      14.59      19.30
H       9.82      12.41      20.93
C      12.49      13.67      17.24
H      11.75      14.26      16.69
H      12.51      12.68      16.76
H      13.48      14.13      17.13
O       9.15      11.48      18.87
O       9.88      12.70      17.10
C       9.93      12.34      18.32
C      13.77      14.63      21.98
O      13.53      14.46      23.23
O      14.78      15.25      21.49
C      10.96      12.96      19.20
C      12.79      14.05      21.02
C      12.14      13.58      18.70
C      11.62      13.44      21.49
C      13.03      14.11      19.64
C      10.73      12.90      20.59
