37

H       8.02      14.74       0.33
H       7.60      16.55       1.98
H      11.81      17.46       2.04
H      12.21      15.66       0.36
H       7.99      19.15       1.67
N       8.14      20.31       3.38
N      10.79      17.38       4.79
H       8.43      21.29       5.16
H       8.19      20.32       7.23
H       8.91      20.61       9.58
O      11.56      13.99      -1.31
H      12.86      19.35       8.52
O       9.38      13.40      -1.25
H      12.19      19.11       6.16
O      12.66      20.09      10.85
O      10.62      20.87      11.42
H      11.04      17.35       5.77
H      10.87      16.52       4.25
C      10.38      14.08      -0.85
C      10.14      15.09       0.23
C       8.85      15.34       0.71
C       8.61      16.35       1.64
C       9.67      17.13       2.13
C      10.98      16.85       1.69
C      11.20      15.85       0.74
C       9.40      18.27       3.03
C       8.49      19.24       2.63
C       8.73      20.42       4.58
C       9.64      19.50       5.12
C       9.98      18.37       4.33
C      10.12      19.67       6.51
C       9.22      20.11       7.50
C       9.63      20.28       8.82
C      10.95      20.03       9.20
C      11.84      19.57       8.23
C      11.44      19.41       6.90
C      11.44      20.34      10.60
