34

O       1.63      18.23      14.22
O       5.04      23.35       6.84
H       2.13      21.40       8.10
H       4.54      20.18      12.96
H       6.10      24.25      10.51
H       6.83      23.47       9.09
H       5.48      24.58       8.89
H       0.57      17.32      10.55
H       1.19      16.99      12.17
H      -0.16      18.10      11.97
H      -0.08      18.90       9.47
H       0.24      20.56       8.97
H       1.13      19.23       8.21
H       6.75      22.67      11.59
H       5.54      22.34      12.85
H       6.43      21.01      12.08
C       2.76      18.47      13.69
C       3.91      23.10       7.36
C       3.89      22.43       8.70
C       2.78      19.14      12.36
C       1.79      19.72      10.23
C       4.88      21.85      10.83
C       1.78      18.91      11.37
C       4.89      22.66       9.69
C       3.80      20.07      12.17
C       2.88      21.50       8.89
C       3.85      20.87      11.01
C       2.82      20.70      10.04
C       5.88      23.80       9.54
C       0.80      17.77      11.52
C       0.72      19.59       9.17
C       5.95      21.98      11.89
O       3.89      18.24      14.25
O       2.78      23.33       6.81
