86

C      18.14      11.63      26.02
C      17.19      11.75      27.06
H      15.81       5.21      26.02
C      17.02      10.72      27.97
H      16.75       7.72      26.16
C      18.27      12.77      25.10
H      18.63      10.84      30.11
C      18.88       8.71      34.76
H      19.08      10.52      32.72
C      20.13       8.45      35.33
C      20.60       9.21      36.40
H      18.39       6.51      36.21
H      17.44       4.00      36.05
C      19.81      10.26      36.91
H      15.38       0.98      32.18
C      18.56      10.53      36.33
H      14.97       1.28      29.53
C      18.10       9.76      35.27
H      17.01       1.81      27.17
C      20.34      11.11      38.01
H      15.92       0.43      25.39
C      16.38       2.22      34.36
H      12.31       2.72      25.81
C      17.31       1.21      34.60
H      13.40       4.10      27.59
C      17.05       0.21      35.53
H      11.80       0.45      23.28
C      15.85       0.23      36.26
C      14.92       1.26      36.04
H      19.31       8.51      26.78
H      19.64      10.30      25.14
C      15.18       2.24      35.09
H      16.61      12.67      27.12
C      15.57      -0.81      37.27
H      16.28      10.82      28.77
H      19.82      11.88      24.20
N      16.86       6.08      29.08
H      20.75       7.65      34.93
N      17.82       7.80      31.23
H      21.58       9.03      36.82
N      17.51       5.60      33.11
H      17.96      11.34      36.74
N      16.46       3.91      30.98
H      17.12       9.95      34.83
O      12.20       0.98      24.12
H      18.26       1.21      34.06
O      14.08      -0.30      23.95
H      17.78      -0.58      35.71
O      17.60      13.78      25.10
H      14.00       1.27      36.62
O      19.28      12.69      24.14
H      14.46       3.03      34.90
O      19.68      12.19      38.27
O      21.41      10.76      38.60
O      14.66      -0.59      38.16
O      16.22      -1.91      37.28
C      15.95       3.29      29.86
C      15.89       3.86      28.57
C      16.31       5.15      28.22
C      16.20       5.72      26.89
C      16.68       7.00      26.97
C      17.09       7.21      28.34
C      17.58       8.44      28.85
C      17.90       8.70      30.20
C      18.43       9.96      30.70
C      18.66       9.79      32.04
C      18.27       8.43      32.37
C      18.37       7.86      33.65
C      18.01       6.54      33.98
C      18.05       5.99      35.33
C      17.56       4.71      35.24
C      17.22       4.48      33.86
C      16.66       3.29      33.36
C      16.29       3.04      32.03
C      15.64       1.83      31.56
C      15.44       1.99      30.22
C      15.27       3.04      27.50
C      15.98       2.00      26.87
C      15.38       1.23      25.88
C      14.05       1.49      25.50
C      13.34       2.53      26.11
C      13.95       3.29      27.10
C      13.42       0.66      24.46
C      17.77       9.54      27.88
C      18.71       9.42      26.84
C      18.89      10.45      25.93
