38

H       8.48       5.75       7.64
H       8.20       3.33       8.13
H       9.19       1.07       8.26
H      11.19      -0.38       8.03
H      14.64       1.03       5.83
H      14.63       3.27       4.80
H      13.64       5.53       4.68
N      14.55      -2.63       8.80
H       7.94       7.93       8.17
N      15.60      -2.20       8.05
N       8.70       9.83       7.63
N       9.75      10.26       6.86
H      12.52      -2.09       8.96
H      15.87      -0.72       6.57
H      11.25       9.30       5.73
H      11.94       7.13       5.47
C      10.38       9.18       6.37
C       9.75       8.00       6.81
C      11.36       6.33       5.91
C      10.16       6.61       6.59
C       9.42       5.55       7.13
C       9.89       4.23       7.09
C      11.15       3.96       6.47
C      11.86       5.02       5.84
C       9.18       3.14       7.69
C       9.73       1.89       7.76
C      11.04       1.61       7.24
C      11.72       2.66       6.54
C      13.01       2.41       5.98
C      13.66       3.47       5.27
C      13.12       4.72       5.20
C      11.71       0.40       7.45
C      13.02       0.18       7.01
C      13.47      -1.90       8.47
C      13.63       1.18       6.22
C      13.81      -0.95       7.49
C      15.18      -1.21       7.26
C       8.70       8.48       7.61
