18

H       9.21       6.37       9.19
H      11.61       4.88       6.01
H      10.70       3.22       4.67
H       9.07       3.57       5.27
H      10.26       2.78       6.35
H      10.92       8.24       6.56
H      13.59       9.04       6.80
H      12.59       9.26       5.34
H      13.62       7.81       5.51
C      12.98       8.52       6.05
C      10.13       3.53       5.55
C      11.94       6.74       7.42
C      10.61       6.20       7.84
N      13.04       6.10       7.72
N       9.98       5.32       7.10
N      11.85       7.84       6.67
N      10.59       4.86       5.92
O      10.13       6.74       8.95
