16

C      22.77      12.35      21.18
C      21.68      15.41      19.07
O      20.52      17.06      17.87
O      22.81      17.16      18.01
S      23.19      14.75      19.61
S      20.15      12.28      21.06
C      21.67      16.63      18.26
H      23.78      12.06      21.44
C      20.57      14.68      19.48
O      22.81       9.95      22.78
C      21.67      10.39      22.41
C      21.67      11.62      21.60
C      22.37      13.46      20.41
C      20.97      13.56      20.25
H      19.56      14.96      19.23
O      20.52       9.89      22.68
