26

H       5.43       0.09       5.04
H       4.16      -0.62       7.03
H       4.16      -5.61      10.62
H       5.37      -4.93       8.59
H       2.02      -1.89      10.64
H       3.21      -1.18       8.60
H       7.57      -3.63       5.03
O       7.06      -0.12       3.23
H       6.32      -4.37       7.02
O       2.57      -5.37      12.46
O       1.43      -3.40      12.47
O       8.18      -2.10       3.22
C       7.33      -1.28       3.71
C       2.30      -4.22      11.99
C       6.58      -1.72       4.91
C       3.02      -3.79      10.76
C       5.61      -0.89       5.49
C       4.90      -1.30       6.61
C       3.97      -4.64      10.17
C       4.64      -4.24       9.02
C       2.76      -2.55      10.18
C       3.44      -2.16       9.03
C       6.82      -2.98       5.48
C       6.11      -3.39       6.60
C       5.13      -2.56       7.21
C       4.40      -2.99       8.42
