37

H       0.99       1.48      14.48
H       1.49       1.10      16.66
H       4.26       3.30      17.01
H       3.77       1.62      17.17
H       3.33       1.39      14.85
H       4.35       2.82      14.70
H       2.73       5.13      17.39
H       3.42       4.92      15.22
H       0.02       4.69      16.69
C       2.12       2.65      21.34
C       2.61       3.51      10.53
C       1.10       2.12      16.57
C       3.50       2.57      16.70
C       3.44       2.44      15.17
C       2.48       3.41      11.97
C       2.12       3.06      17.26
C       0.98       2.41      15.05
C       2.22       3.25      14.61
C       2.37       4.63      15.31
C       1.98       4.56      16.83
C       2.32       3.35      13.17
C       2.11       2.94      18.70
C       2.16       2.81      19.91
N      -0.29       1.95      17.20
N      -0.34       3.03      14.62
N       1.64       5.79      14.66
O       0.95       2.53      21.85
O       3.23       2.64      21.97
O       1.64       3.05       9.84
O       3.68       4.05      10.09
O      -0.62       2.64      18.16
O      -0.97       1.06      16.67
O      -0.94       3.79      15.42
O      -0.75       2.73      13.51
O       0.75       5.17      17.14
O       0.67       5.55      13.94
O       2.08       6.91      14.94
