24

C      22.84      17.77       8.56
C      21.24      18.69      11.01
N      19.34      19.79      11.02
N      24.38      16.88       2.79
H      20.20      19.29       7.05
H      19.04      19.96       8.93
N      25.34      16.33       3.57
N      20.30      19.24      11.80
H      21.42      18.59       5.06
H      22.58      17.92       3.16
H      24.47      16.83       7.55
H      25.64      16.15       5.66
H      23.25      17.53       9.54
H      22.10      18.20      11.43
C      21.62      18.47       8.46
C      20.89      18.89       9.66
C      23.05      17.65       6.13
C      23.78      17.22       4.94
C      21.14      18.75       7.17
C      19.68      19.60       9.73
C      21.84      18.35       6.04
C      23.44      17.42       3.59
C      23.54      17.37       7.42
C      25.00      16.52       4.86
