26

N      21.91       5.03      11.52
O      18.47       3.88      11.88
O      23.37       5.47      13.94
O      24.70       7.30      13.71
O      19.95      10.41       9.72
O      18.97       8.38       9.39
H      19.37       5.69      12.16
H      20.67       1.97      11.35
H      23.36       2.14      10.96
H      24.00       4.77      11.17
H      20.32       6.53      10.10
H      21.72      10.34      11.50
H      23.37       9.17      12.98
C      19.46       4.61      11.88
C      20.80       4.16      11.56
C      21.28       2.87      11.34
C      22.68       2.95      11.16
C      23.04       4.29      11.27
C      21.87       6.44      11.60
C      20.96       7.11      10.77
C      20.89       8.50      10.75
C      21.77       9.25      11.54
C      22.68       8.60      12.35
C      22.73       7.19      12.42
C      23.67       6.59      13.43
C      19.86       9.15       9.88
