24

H       1.57       9.49       2.75
H      -1.59       2.13      -2.75
H       0.49       8.35       0.85
H      -0.51       3.27      -0.85
H       1.78       4.60       2.58
H      -1.80       7.02      -2.58
H       2.89       5.91       4.37
H      -2.91       5.71      -4.37
H       0.44       4.48       0.64
H      -0.46       7.14      -0.64
C       1.59       8.40       2.67
C      -1.61       3.21      -2.67
C       0.98       7.75       1.62
C      -1.00       3.87      -1.62
C       1.00       6.34       1.55
C      -1.02       5.28      -1.55
C       1.71       5.68       2.58
C      -1.73       5.93      -2.58
C       2.31       6.40       3.59
C      -2.33       5.21      -3.59
C       0.35       5.56       0.52
C      -0.36       6.05      -0.52
N       2.23       7.75       3.69
N      -2.25       3.86      -3.69
