27

C       9.25       1.65      19.78
C       8.83       0.51      18.88
H      13.25       5.39      22.41
H      11.13       1.64      22.83
O      12.94       1.66      26.91
O      14.00       3.63      27.31
O      11.34       5.03      15.67
O      10.42       2.96      15.36
O      10.57       1.36      20.32
H      12.80       5.34      19.95
H       9.29       2.59      19.21
H       8.57       1.78      20.63
H       8.79      -0.44      19.44
H       7.82       0.72      18.48
H       9.51       0.41      18.04
C      11.05       3.86      16.05
C      11.40       3.54      17.40
C      12.43       4.55      20.60
C      12.68       4.57      21.96
C      11.49       2.46      22.21
C      11.23       2.43      20.84
C      11.72       3.48      20.01
C      12.23       3.51      22.78
C      12.54       3.46      24.16
C      11.54       3.46      18.61
C      12.81       3.30      25.33
C      13.27       2.84      26.61
