24

H       0.89       4.83       5.03
H      -1.57       4.62       5.19
N      -3.76       6.43       8.09
N       3.16       6.80       7.77
Cl       1.37       7.28      11.88
Cl      -4.04       4.83       6.03
Cl       3.34       5.58       5.46
Cl      -3.89       8.12      10.06
Cl       3.35       8.42       9.79
Cl      -1.68       7.16      12.00
C      -3.12       5.70       7.18
C       2.49       6.10       6.84
C      -3.06       7.00       9.10
C       2.51       7.26       8.87
C      -1.67       6.78       9.29
C       1.17       6.92       9.16
C      -0.98       6.22       8.18
C       0.44       6.30       8.11
C      -1.71       5.65       7.10
C       1.10       5.86       6.93
C      -0.90       7.08      10.47
C       0.48       7.14      10.42
C       0.36       5.21       5.90
C      -1.00       5.09       5.99
