50

N      -0.71       0.26      32.05
N      -6.13       0.49      40.39
H      -2.51      -0.11      28.76
N      -5.48       0.56      41.49
H      -0.04      -0.75      34.34
O      -3.95       0.94      46.12
H      -1.37      -0.74      36.43
O      -5.58       0.16      47.43
H      -4.42       1.60      34.45
O      -8.02      -0.28      46.38
H      -3.12       1.48      32.34
O      -2.98      -0.61      26.44
H      -2.09       0.16      38.18
O      -1.35      -0.04      25.03
H      -3.42       0.19      40.26
O       1.09       0.54      25.99
H      -7.00       0.85      37.98
H      -5.70       0.81      35.89
H      -8.20       0.04      41.86
H      -9.24      -0.32      44.11
H      -4.42       0.80      43.75
H       1.32       0.72      30.52
H       2.33       0.82      28.24
C      -1.80      -0.20      26.23
C      -0.90       0.12      27.35
C      -1.45       0.10      28.64
C      -0.68       0.33      29.78
C      -1.50       0.35      33.21
C      -1.00      -0.24      34.38
C      -1.75      -0.22      35.55
C      -3.00       0.43      35.61
C      -3.47       1.05      34.43
C      -2.75       1.00      33.25
C      -3.79       0.48      36.86
C      -3.17       0.31      38.12
C      -3.90       0.33      39.29
C      -5.30       0.52      39.25
C      -5.92       0.70      38.01
C      -5.18       0.68      36.84
C      -6.23       0.42      42.67
C      -7.61       0.12      42.77
C      -8.18      -0.08      44.02
C      -7.42      -0.01      45.22
C      -6.03       0.34      45.10
C      -5.48       0.54      43.84
C      -5.14       0.50      46.26
C       0.71       0.56      29.63
C       1.27       0.61      28.37
C       0.50       0.42      27.19
N      -1.40       0.32      30.98
