22

C       3.52      12.52       5.77
C       4.47      12.12       3.49
H       3.65      16.79       6.70
C       3.62      13.87       5.88
H       3.98      10.61       4.88
N       2.08      16.37       8.07
H       2.98      11.99       6.56
H       4.53      13.19       3.30
N       5.27       9.48       1.05
N       1.39      15.24       8.42
H       4.22      14.43       5.15
N       6.05      10.52       0.60
H       3.88       9.26       2.63
H       1.48      13.22       7.86
H       6.34      12.53       1.22
C       3.00      16.03       7.13
C       4.59       9.91       2.13
C       1.88      14.22       7.72
C       4.91      11.26       2.41
C       2.91      14.66       6.86
C       4.01      11.69       4.69
C       5.83      11.58       1.40
