29

O      11.13      13.07       4.00
H       8.27      16.14       8.62
H       7.32      13.90       8.71
H      14.01      17.38       5.64
H      12.81      13.29       6.03
H       9.98      17.73       7.78
O      12.26      11.43       5.52
O      10.24      10.84       4.28
H       7.33      11.53       7.92
H      10.48       9.95       4.79
H      15.32      15.58       4.53
H      15.62      14.66       6.01
H      14.80      13.88       4.65
C       8.11      13.54       8.06
C      13.29      16.62       5.93
C      13.57      15.26       5.75
C      12.59      14.35       6.11
C      11.33      14.78       6.58
C      11.20      16.17       6.87
C      10.21      13.89       6.84
C       9.14      14.41       7.66
C       9.11      15.79       8.02
C      10.06      16.66       7.58
C      10.01      12.58       6.31
C       8.10      12.24       7.61
C      14.90      14.82       5.20
S      11.06      11.98       4.93
N       9.00      11.78       6.70
N      12.17      17.06       6.51
