16

C       6.49       3.16      13.71
C       6.48       3.91      12.55
C       7.64       4.00      11.77
C       8.81       3.32      12.16
C       8.81       2.57      13.33
C       7.65       2.49      14.11
O       8.78       1.33      15.84
H       5.59       3.08      14.33
H       5.59       4.45      12.23
H       9.70       3.39      11.53
H       9.70       2.02      13.63
O       6.51       1.35      15.84
C       7.65       1.67      15.36
C       7.63       4.82      10.52
O       6.51       5.30      10.16
O       8.73       4.98       9.90
