22

H      15.41       7.76       7.55
H      17.60      10.46       9.14
H      17.10      12.25       6.29
H      16.34       8.36       4.60
C      18.08      10.05       8.25
C      13.53       8.86       7.71
C      17.30       9.63       7.24
C      15.00       8.77       7.51
C      15.83       9.79       7.28
C      19.57       9.98       8.28
S      15.27      11.50       7.15
S      18.06       8.92       5.76
O      13.94      11.54       6.61
O      15.64      12.17       8.37
O      16.20      12.03       5.96
O      13.11       9.65       8.60
O      18.21       9.96       4.77
O      19.15       8.09       6.18
O      16.93       7.90       5.25
O      20.06       9.27       9.20
O      12.83       8.07       6.98
O      20.17      10.68       7.41
