32

H      -1.36       9.20      19.82
H      -0.06       9.06      21.04
H       2.22       9.03      20.32
H       3.92       9.28      18.55
H       0.93      10.90      15.90
H      -0.78      10.61      17.67
H       2.28       9.85      14.39
H       3.96      10.32      12.64
H       6.85      11.26      15.69
H       5.15      10.85      17.43
H       6.14      11.77      12.19
H       7.43      11.61      13.42
O      -1.52      11.77      19.97
O      -0.35      11.37      21.89
O       7.69       9.03      13.07
O       6.64       9.61      11.13
C      -0.81      11.04      20.74
C      -0.44       9.66      20.21
C       0.59       9.79      19.11
C       1.93       9.44      19.35
C       2.89       9.59      18.35
C       2.56      10.11      17.09
C       1.21      10.46      16.86
C       0.25      10.30      17.85
C       3.58      10.32      16.05
C       3.27      10.18      14.68
C       4.23      10.44      13.70
C       5.52      10.84      14.04
C       5.84      10.96      15.40
C       4.89      10.71      16.38
C       6.55      11.12      12.97
C       7.01       9.81      12.33
