48

H      11.91       6.26      13.89
H      11.11       6.92      12.44
H      13.93       9.02       8.34
H      15.71       9.07       8.29
H      16.61       8.75      10.92
H      16.87       7.66       9.54
H      17.46       6.42      11.49
H      16.04       6.93      12.39
H      13.31       6.96       9.05
H      14.98       6.43       8.62
H      13.29       4.84      12.00
H      12.26       5.79      10.88
H      16.18       4.97      10.04
H      15.60       4.65      11.67
N      14.29       5.73      10.43
N      13.20       6.96      12.31
N      14.85       8.06       9.97
N      12.46      11.83      12.32
N      13.55      10.61      10.43
N      11.90       9.50      12.77
C      11.97       7.05      13.12
C      14.83       9.14       8.96
C      16.25       7.83      10.43
C      16.39       6.65      11.39
C      14.32       6.77       9.44
C      13.23       5.78      11.41
C      15.64       5.42      10.89
H      14.84      11.30       8.86
H      15.64      10.64      10.30
H      12.83       8.54      14.40
H      11.04       8.50      14.45
H      10.14       8.81      11.83
H       9.88       9.91      13.21
H       9.29      11.14      11.26
H      10.71      10.64      10.35
H      13.44      10.60      13.69
H      11.77      11.13      14.13
H      13.47      12.72      10.75
H      14.49      11.77      11.86
H      10.57      12.60      12.70
H      11.15      12.92      11.07
C      14.78      10.51       9.63
C      11.92       8.42      13.79
C      10.50       9.73      12.31
C      10.36      10.91      11.35
C      12.43      10.79      13.31
C      13.52      11.79      11.34
C      11.11      12.15      11.85
