34

S       4.10      -1.05      11.02
H       8.32       0.45       6.64
H       9.20      -0.29       8.84
H       4.38      -0.90       7.75
H       9.25      -0.19      11.20
H       9.71      -1.76      10.45
H       9.11      -1.70      12.14
H       6.09      -1.60      13.00
H       6.07      -3.19      14.95
H       2.11      -4.47      13.90
H       2.11      -2.90      11.93
O       6.58       0.54       4.80
O       4.49       0.42       5.61
O       7.66      -1.48      10.76
O       5.11      -1.93      10.06
O       4.76       0.19      11.35
O       2.81      -1.03      10.38
O       5.09      -4.97      16.43
O       2.99      -5.54      15.85
C       5.75       0.29       5.75
C       6.29      -0.17       7.05
C       7.65      -0.02       7.37
C       8.15      -0.44       8.60
C       7.29      -1.05       9.53
C       5.94      -1.23       9.18
C       5.44      -0.78       7.97
C       9.02      -1.26      11.15
C       4.09      -2.16      12.39
C       5.22      -2.22      13.22
C       5.20      -3.11      14.29
C       4.08      -3.90      14.54
C       2.96      -3.83      13.69
C       2.96      -2.96      12.61
C       4.06      -4.87      15.69
