30

H       9.00      11.33      10.50
H       5.68      18.10      13.27
H       9.85      15.96       9.60
H       4.83      13.46      14.18
H       5.68      11.33      13.25
H       9.00      18.10      10.52
H       9.87      13.49       9.60
H       4.81      15.94      14.18
C       7.36      19.72      11.93
C       7.32       9.70      11.85
C       6.41      11.88      12.66
C       8.27      17.54      11.11
C       7.34      11.19      11.87
C       7.34      18.23      11.90
C       8.28      11.89      11.10
C       6.40      17.54      12.67
C       8.28      13.29      11.07
C       6.40      16.13      12.71
C       7.35      14.00      11.89
C       7.34      15.42      11.89
C       6.42      13.28      12.71
C       8.26      16.14      11.07
C       9.18      14.04      10.24
C       5.50      15.39      13.54
C       9.17      15.40      10.23
C       5.51      14.02      13.54
O       8.50      20.29      11.84
O       6.18       9.13      11.93
O       8.44       9.10      11.75
O       6.24      20.32      12.03
