23

H       4.97       7.17       4.31
H       6.94       4.47       1.74
H       4.01       7.56       1.73
H       6.07       3.87      -0.24
H       6.02       3.79      -2.71
H       4.59       7.86      -2.80
H       4.68       7.96      -0.35
C       5.21       6.65       3.38
C       6.25       5.23       2.08
C       4.76       6.88       2.11
C       5.37       5.92      -0.13
C       5.75       4.75      -0.80
C       5.72       4.70      -2.19
C       5.29       5.82      -2.93
C       4.90       6.98      -2.25
C       4.95       7.04      -0.86
C       5.24       5.75      -4.39
N       6.13       5.62       3.35
N       5.44       5.98       1.29
N       5.79       6.64      -5.24
N       5.51       6.20      -6.50
N       4.83       5.10      -6.42
N       4.64       4.79      -5.10
