64

H      17.47      15.77      23.43
H      20.34      15.93      20.18
H      16.73       6.59      29.44
H      20.58       6.98      31.39
H      24.66      17.14      28.72
H      23.50      15.95      32.72
H      28.18       7.13      26.41
H      25.25       6.64      23.25
H      22.88      11.11      23.98
H      22.44      10.58      28.28
H      19.20      11.24      25.44
H      21.73      14.24      26.08
H      19.16      13.93      24.75
H      21.23       8.93      29.13
H      23.35      15.09      27.67
H      24.10       9.05      24.15
C      18.06      15.99      22.55
C      19.21      15.37      22.05
C      19.51      16.08      20.88
C      17.61       6.50      30.06
C      18.79       7.26      30.04
C      19.59       6.70      31.05
C      24.45      17.05      29.78
C      23.86      16.00      30.49
C      23.87      16.45      31.83
C      27.61       6.86      25.52
C      26.33       7.27      25.13
C      26.12       6.63      23.90
C      21.30      12.17      25.22
C      22.47      11.22      24.98
C      22.86      10.63      26.11
C      22.07      11.05      27.36
C      20.19      11.34      25.88
C      20.61      10.75      27.01
C      21.77      13.18      26.28
C      22.17      12.58      27.41
C      19.97      14.30      22.66
C      19.85      13.75      23.93
C      19.05       8.35      29.13
C      20.21       9.02      28.79
C      23.35      14.78      29.91
C      23.16      14.51      28.57
C      25.42       8.19      25.78
C      24.43       8.95      25.18
N      18.61      17.05      20.69
N      17.70      17.00      21.73
N      18.93       5.67      31.62
N      17.71       5.54      31.01
N      24.43      17.67      31.89
N      24.79      18.05      30.62
N      27.21       5.90      23.58
N      28.14       6.05      24.58
N      21.60      12.84      22.88
N      21.05      13.71      22.05
N      20.86      12.86      24.02
N      18.48       9.80      27.57
N      18.02       8.87      28.36
N      19.83       9.91      27.81
N      22.56      12.73      29.80
N      22.96      13.66      30.62
N      22.67      13.24      28.53
N      24.46       9.33      27.39
N      25.40       8.46      27.13
N      23.86       9.65      26.20
