28

C      15.28      16.32      27.43
C      15.40      17.24      28.60
C      16.47      18.14      28.68
C      16.54      19.05      29.73
C      15.53      19.07      30.72
C      14.49      18.13      30.65
C      14.42      17.22      29.60
C      15.54      20.06      31.73
C      15.47      20.95      32.57
C      15.37      21.99      33.51
C      14.34      21.99      34.48
C      14.23      23.03      35.39
C      15.14      24.10      35.35
C      16.16      24.11      34.39
C      16.29      23.07      33.49
C      15.01      25.23      36.33
H      17.24      18.13      27.90
H      17.36      19.76      29.79
H      13.71      18.14      31.42
H      13.61      16.51      29.54
H      13.62      21.17      34.49
H      13.44      23.03      36.14
H      16.86      24.95      34.38
H      17.08      23.07      32.75
O      16.15      16.43      26.50
O      14.30      15.50      27.45
O      14.19      25.07      37.29
O      15.74      26.25      36.11
