44

C       2.22       5.26      13.19
C       2.21      -5.24      19.57
C       2.22      -3.88      18.86
C       2.28      -3.78      17.46
C       2.31      -2.56      16.79
C       2.17      -1.35      17.51
C       2.12      -1.45      18.92
C       2.19      -2.67      19.57
C       2.11       1.47      13.84
C       2.17       1.37      15.24
C       2.31       2.58      15.96
C       2.28       3.80      15.29
C       2.23       3.90      13.89
C       2.19       2.69      13.18
N       2.14      -0.04      17.01
N       2.13       0.06      15.75
N       2.24      -2.66      21.06
N       2.05      -0.20      19.72
N       2.34      -5.02      16.63
N       2.54      -2.57      15.32
N       2.04       0.22      13.03
N       2.23       2.68      11.70
N       2.56       2.59      17.43
N       2.35       5.04      16.12
O       3.30       5.59      12.62
O       1.13       5.89      13.24
O       3.29      -5.57      20.13
O       1.12      -5.87      19.51
O       3.21      -3.21      21.57
O       1.32      -2.07      21.63
O       1.06       0.51      19.56
O       3.01      -0.01      20.47
O       1.41      -5.81      16.77
O       3.31      -5.12      15.87
O       3.63      -2.11      14.96
O       1.67      -3.08      14.63
O       1.05      -0.49      13.19
O       3.00       0.03      12.28
O       3.20       3.24      11.18
O       1.31       2.09      11.13
O       3.64       2.14      17.78
O       1.68       3.09      18.13
O       1.42       5.83      15.98
O       3.32       5.13      16.88
