41

O       3.19      22.05      12.23
H       4.64      29.35      16.35
H       4.30      27.33      15.45
H       3.58      25.67      14.22
H       5.02      23.16      14.82
H       4.60      23.59      13.14
H       2.56      22.99      15.19
H       0.75      22.08      14.21
H       2.37      19.44      12.22
H      -2.47      20.31      11.49
H      -1.18      21.80      12.97
H       7.85      26.46      16.16
H       9.36      28.16      17.22
C       6.51      30.04      17.12
C       5.68      29.07      16.52
C       6.15      27.80      16.17
C       5.38      25.59      15.25
C       4.29      23.68      14.19
C       2.56      22.22      13.27
C       0.68      20.71      12.68
C       1.31      19.63      12.06
C       0.58      18.73      11.26
C      -0.82      19.00      11.05
C      -1.41      20.10      11.68
C      -0.69      20.94      12.50
C      -1.69      18.18      10.19
C       7.50      27.46      16.41
C       8.32      28.40      16.99
C       7.88      29.69      17.36
C       8.84      30.59      18.02
N       5.23      26.94      15.58
N       4.27      25.06      14.64
N       2.97      23.10      14.27
N       1.36      21.59      13.56
O      -2.88      18.56       9.92
O      -1.23      17.06       9.74
O       1.20      17.66      10.74
O       3.10      30.23      18.27
O       8.43      31.77      18.36
O       5.95      31.22      17.44
O       6.39      24.93      15.51
