111

O       8.36       7.28       2.11
O      -0.06      -4.30      -6.24
O       8.90       7.90      -0.02
O      -0.60      -2.48      -7.50
H       2.57       1.16      -1.79
H       5.73       1.33      -1.66
O      -4.20       5.56       2.95
O      12.50      -4.56      -4.34
H       3.59       2.28      -0.83
H       4.71       0.07      -2.43
O      -5.06       6.65       1.20
O      13.36      -3.24      -5.93
H       2.42       5.43      -2.54
H       5.88       0.70      -5.95
O      -3.07      -0.42      -8.02
O      11.37       7.74      -2.13
H       3.93       4.47      -2.75
H       4.37       1.19      -5.11
O      -2.14       1.21      -9.22
O      10.44       8.36      -4.06
H       1.49       3.46      -0.16
H       6.81      -0.94      -3.33
H       0.51       2.37      -1.20
H       7.79       0.39      -2.63
H       2.50       3.04      -4.33
H       5.80       3.14      -4.25
H       1.02       3.96      -3.87
H       7.28       2.42      -4.98
H       5.02       6.25      -2.45
H       3.28       0.35      -6.70
H       7.13       7.30      -1.68
H       1.17      -0.72      -7.45
H       6.28       6.11       2.36
H       2.02      -4.17      -5.05
H       4.20       4.97       1.60
H       4.10      -3.09      -4.21
H      -0.38       3.28       0.90
H       8.68      -1.90      -2.83
H      -2.29       4.02       2.30
H      10.59      -3.45      -3.09
H      -3.46       6.82      -0.76
H      11.76      -1.44      -6.71
H      -1.51       6.15      -2.12
H       9.81       0.07      -6.51
H      -0.81       0.02      -3.72
H       9.11       3.52      -1.20
H      -2.24      -0.59      -5.68
H      10.54       5.57      -1.23
H      -0.41       2.52      -8.00
H       8.71       6.79      -4.92
H       1.00       3.17      -6.06
H       7.29       4.74      -4.92
C       2.22       3.27      -2.19
C       6.08       1.04      -3.80
C       3.14       2.10      -1.82
C       5.16       1.06      -2.57
C       3.02       4.59      -2.15
C       5.28       0.59      -5.03
C       1.08       3.31      -1.17
C       7.22       0.06      -3.51
C       1.67       3.10      -3.61
C       6.63       2.44      -4.09
C       4.49       5.52      -0.47
C       3.81      -1.30      -5.39
C       5.29       6.20      -1.40
C       3.01      -0.64      -6.32
C       6.47       6.81      -0.96
C       1.83      -1.24      -6.77
C       6.83       6.79       0.39
C       1.46      -2.52      -6.32
C       5.99       6.13       1.31
C       2.30      -3.18      -5.41
C       4.83       5.50       0.89
C       3.46      -2.59      -4.94
C       8.13       7.37       0.86
C       0.17      -3.14      -6.72
C      -0.82       4.69      -0.70
C       9.12      -0.83      -4.67
C      -1.04       4.07       0.54
C       9.34      -1.80      -3.69
C      -2.12       4.48       1.32
C      10.42      -2.67      -3.83
C      -3.00       5.47       0.88
C      11.30      -2.57      -4.91
C      -2.78       6.06      -0.38
C      11.08      -1.56      -5.87
C      -1.69       5.69      -1.15
C       9.99      -0.71      -5.77
C      -4.14       5.90       1.74
C      12.43      -3.52      -5.05
C       0.17       1.63      -4.76
C       8.13       4.00      -3.05
C      -0.74       0.56      -4.66
C       9.04       4.24      -2.01
C      -1.53       0.23      -5.75
C       9.83       5.38      -2.03
C      -1.42       0.94      -6.96
C       9.71       6.30      -3.09
C      -0.50       1.99      -7.05
C       8.79       6.06      -4.12
C       0.30       2.34      -5.96
C       8.00       4.91      -4.11
C      -2.25       0.56      -8.13
C      10.54       7.53      -3.10
O       4.15       2.03      -2.82
O       3.35       4.84      -0.78
O       4.95      -0.79      -4.83
O       0.22       4.40      -1.53
O       8.08       0.06      -4.66
O       0.89       1.90      -3.63
O       7.40       2.85      -2.95
