22

C       1.76       5.17       1.78
C       0.45       5.68       1.70
C      -0.16       6.14       2.87
C       0.56       6.13       4.06
N      -1.83       5.87      -4.13
N       0.36       5.76      -0.55
N       1.82       5.67       4.13
N      -0.32       5.73       0.53
H      -3.38       4.88      -3.16
H      -2.20       4.78      -0.95
H       1.16       6.73      -2.85
H      -0.19       6.81      -4.95
H       3.40       4.78       3.13
H       2.26       4.78       0.90
H      -1.17       6.53       2.86
H       0.13       6.51       4.98
C      -2.38       5.30      -3.03
C      -1.72       5.24      -1.81
C      -0.42       5.77      -1.72
C       0.15       6.32      -2.87
C      -0.59       6.37      -4.04
C       2.40       5.18       3.01
