16

O      15.29      11.13       5.56
Cl      15.94      12.12       2.22
Cl      11.13      15.09       4.86
C      11.51      14.82       1.85
C      12.57      14.22       2.73
C      13.65      13.55       2.15
H      13.73      13.48       1.06
H      13.34      13.71       6.02
C      14.61      12.94       2.95
C      14.51      13.00       4.35
C      13.43      13.67       4.93
C      12.47      14.28       4.13
C      15.53      12.33       5.23
O      10.59      14.02       1.48
O      11.64      16.05       1.55
O      16.53      13.05       5.57
