20

C      24.15      15.50       3.06
C      22.11      14.42       4.78
C      24.21      14.20       3.56
C      22.03      15.73       4.28
C      23.23      13.67       4.39
C      23.02      16.26       3.44
C      25.04      12.93       3.58
C      23.92      12.33       4.52
H      21.18      16.34       4.56
H      22.94      17.28       3.07
H      25.14      12.43       2.60
H      26.03      13.02       4.03
H      24.25      12.08       5.54
H      23.36      11.48       4.12
C      21.05      13.86       5.66
C      25.19      16.06       2.16
O      21.21      12.65       6.05
O      20.08      14.63       5.96
O      25.05      17.27       1.78
O      26.16      15.28       1.86
