54

C      25.19       9.45       2.62
C      25.86      10.14       1.86
C      29.68      18.00       2.63
C      29.02      17.31       1.88
C      29.65       9.44      -2.64
C      28.99      10.13      -1.88
H      22.51      19.17      -2.36
H      25.74      19.31      -5.24
H      22.49       8.27       2.35
H      25.72       8.13       5.24
N      23.84      20.25      -5.10
N      22.82      20.20      -4.19
H      32.38      19.19       2.35
H      29.15      19.34       5.24
N      23.82       7.20       5.10
N      22.79       7.24       4.18
H      32.36       8.26      -2.37
H      29.12       8.11      -5.25
N      31.05      20.28       5.09
N      32.07      20.23       4.18
N      31.02       7.18      -5.11
N      32.05       7.23      -4.20
H      28.81      14.63       1.67
H      26.09      14.63      -1.66
H      26.08      12.82       1.67
H      28.81      12.81      -1.67
H      27.45      18.36       0.00
H      27.42       9.08      -0.02
C      23.17      19.36      -3.20
C      24.46      18.84      -3.45
C      24.83      19.43      -4.68
C      23.15       8.08       3.19
C      24.43       8.60       3.45
C      24.80       8.01       4.67
C      31.72      19.38       3.19
C      30.44      18.86       3.45
C      30.06      19.46       4.67
C      31.70       8.07      -3.21
C      30.41       8.59      -3.47
C      30.04       7.99      -4.69
C      28.21      15.17       0.94
C      27.45      14.47       0.01
C      26.69      15.17      -0.93
C      26.67      16.58      -0.94
C      27.45      17.27       0.00
C      28.23      16.58       0.95
C      27.44      12.98       0.00
C      26.68      12.28       0.94
C      26.65      10.87       0.94
C      27.42      10.17      -0.01
C      28.21      10.86      -0.95
C      28.20      12.27      -0.94
C      25.22      17.99      -2.63
C      25.88      17.31      -1.87
