16

Cl      18.52       8.50       2.75
Cl      18.24      14.60       5.39
C      18.44       9.75       3.90
C      18.32      13.35       4.25
C      18.37       9.61       5.29
C      18.39      13.49       2.86
C      18.34      11.99       4.63
C      18.42      11.12       3.52
S      18.30      11.15       6.12
S      18.49      11.96       2.03
C      18.37       8.40       6.11
C      18.40      14.70       2.04
O      18.57      14.53       0.78
O      18.35       7.28       5.50
O      18.38       8.59       7.38
O      18.24      15.82       2.64
