39

H       0.50       0.81       5.13
H      -0.01       0.26       2.76
H      -0.19      -3.80       3.58
H       0.26      -3.43       5.98
H       0.84      -1.93       7.79
H      -0.16       0.94       7.30
H       1.82      -0.95      12.13
H       1.76      -1.27       9.71
H       1.08       0.06      14.16
H      -0.08       2.89      13.75
H       0.61       4.39      15.53
H       1.10       4.74      17.95
H       1.13       0.67      18.70
H       0.60       0.14      16.32
S      -2.02       3.00      10.47
N      -0.10      -1.78       3.07
N      -1.34       2.10       9.31
N      -1.29       2.43      11.79
N       1.12       2.72      18.42
C       0.42      -1.27       5.78
C       0.35      -0.23       4.83
C       0.09      -0.52       3.51
C      -0.01      -2.79       3.96
C       0.26      -2.58       5.30
C       0.58      -1.04       7.21
C       0.27       0.11       7.86
C       0.33       0.27       9.29
C      -0.47       1.27       9.94
C      -0.43       1.47      11.37
C       0.44       0.69      12.20
C       1.17      -0.31      11.54
C       1.13      -0.50      10.14
C       0.59       0.88      13.63
C       0.29       2.02      14.30
C       0.54       2.23      15.71
C       0.67       3.54      16.21
C       0.96       3.74      17.55
C       0.98       1.46      17.96
C       0.70       1.17      16.64
