27

C       5.18       7.97      27.38
H       8.45       9.18      29.42
C       8.68      11.17      28.67
H       2.01       4.89      25.99
C       3.51       4.04      27.28
H       6.76       7.68      28.76
N       8.24      12.16      27.87
C       2.92       2.66      27.18
H       4.68       8.67      26.71
O       3.53       1.75      27.90
H       6.78      12.75      26.51
C       4.66       4.28      28.04
C       2.91       5.09      26.58
O       1.94       2.42      26.44
H       5.52      10.68      26.59
H       3.00       7.19      26.08
C       6.26       8.38      28.09
C       4.62       6.63      27.39
H       6.12       5.71      28.67
C       7.11      11.95      27.16
C       3.46       6.37      26.63
C       6.87       9.70      28.02
H       9.59      11.39      29.24
H       5.13       3.45      28.56
C       8.03       9.95      28.77
C       6.41      10.75      27.20
C       5.20       5.55      28.10
