74

H       3.45       4.61       8.17
H       3.57       1.23       4.77
H       3.56       1.23      11.58
H       1.56       5.54       3.69
H       1.50       4.22       5.82
H       5.64       3.19       5.28
H       5.71       4.56       3.19
H       1.41       5.51      12.60
H       1.42       4.16      10.49
H       5.60       3.30      11.08
H       5.59       4.72      13.14
H       3.70      -4.61       8.17
H       3.59      -1.23       4.77
H       3.60      -1.23      11.58
H       5.60      -5.54       3.69
H       5.66      -4.22       5.82
H       1.51      -3.19       5.28
H       1.45      -4.56       3.19
H       5.75      -5.51      12.60
H       5.73      -4.16      10.49
H       1.56      -3.30      11.08
H       1.56      -4.72      13.14
C       3.65       5.95       2.07
C       3.50       6.01      14.25
C       3.64       5.13       3.32
C       3.50       5.19      13.00
C       2.45       5.03       4.06
C       2.32       5.03      12.26
C       2.42       4.29       5.24
C       2.34       4.28      11.08
C       3.57       3.62       5.69
C       3.51       3.64      10.65
C       4.75       3.71       4.93
C       4.68       3.79      11.41
C       4.79       4.47       3.77
C       4.68       4.57      12.56
C       3.54       2.84       6.95
C       3.52       2.85       9.39
C       3.57       1.43       6.93
C       3.56       1.43       9.41
C       3.58       0.68       5.71
C       3.57       0.68      10.63
C       3.48       3.52       8.17
C       3.57       0.71       8.17
C       3.50      -5.95       2.07
C       3.66      -6.01      14.25
C       3.52      -5.13       3.32
C       3.66      -5.19      13.00
C       4.71      -5.03       4.06
C       4.84      -5.03      12.26
C       4.74      -4.29       5.24
C       4.82      -4.28      11.08
C       3.59      -3.62       5.69
C       3.65      -3.64      10.65
C       2.41      -3.71       4.93
C       2.48      -3.79      11.41
C       2.37      -4.47       3.77
C       2.48      -4.57      12.56
C       3.62      -2.84       6.95
C       3.64      -2.85       9.39
C       3.59      -1.43       6.93
C       3.60      -1.43       9.41
C       3.58      -0.68       5.71
C       3.59      -0.68      10.63
C       3.68      -3.52       8.17
C       3.58      -0.71       8.17
O       4.79       6.15       1.51
O       2.36       6.26      14.79
O       2.54       6.40       1.67
O       4.63       6.40      14.68
O       2.37      -6.15       1.51
O       4.80      -6.26      14.78
O       4.62      -6.40       1.67
O       2.53      -6.40      14.68
