16

C      11.57      10.91       6.20
C      11.88      10.46       4.91
C      11.00      10.70       3.84
C       9.82      11.42       4.07
C       9.50      11.85       5.36
C      10.35      11.58       6.42
C      12.52      10.68       7.33
C      11.31      10.16       2.48
H      12.80       9.91       4.73
H       9.17      11.63       3.22
H       8.56      12.38       5.53
H      10.10      11.89       7.44
O      12.04      10.72       8.51
O      13.74      10.47       7.06
O      10.76      10.73       1.49
O      12.09       9.15       2.42
