16

C       2.94       3.11       6.05
C       5.75       5.37       6.10
C       2.05       4.17       5.97
C       6.61       4.29       6.17
C       4.41       4.93       6.06
C       4.29       3.53       6.10
O       8.66       5.45       6.11
S       2.87       5.71       5.96
H       6.10       6.40       6.07
S       5.81       2.74       6.19
O      -0.00       3.03       5.90
O       8.65       3.17       6.23
F       2.58       1.82       6.07
C       8.08       4.31       6.18
O       0.02       5.31       5.82
C       0.59       4.16       5.89
