16

O      18.50      15.67       8.49
C      18.51      16.93      11.92
O      18.51      14.45      10.44
C      18.51      16.79      10.54
C      18.51      18.29      12.29
C      18.51      19.16      11.18
C      18.51      20.52      11.55
C      18.51      20.68      12.94
C      18.52      21.91      13.75
O      18.51      23.01      13.12
O      18.53      21.74      15.02
H      18.51      16.07      12.59
C      18.51      15.54       9.77
S      18.51      19.15      13.78
S      18.51      18.31       9.69
Br      18.51      21.88      10.25
