32

C       8.96       1.10       0.79
C       7.70      -2.17       1.30
C      10.35       2.17      -1.30
C       7.71       0.54      -2.48
H       7.29      -1.86       2.28
H       6.87      -2.55       0.69
H       8.39      -3.01       1.48
C      10.34      -0.54       2.48
H      10.76       1.86      -2.28
H       9.66       3.01      -1.48
H      11.18       2.55      -0.69
O       7.82       2.74       2.04
O      10.23      -2.74      -2.04
O      10.10       2.78       1.96
O       7.95      -2.78      -1.96
H       7.30       1.56      -2.50
H       8.41       0.43      -3.33
H       6.88      -0.17      -2.64
H      10.75      -1.56       2.50
H      11.17       0.17       2.64
H       9.64      -0.43       3.33
H       6.69       0.62       0.43
H      11.36      -0.62      -0.43
C       8.39       0.27      -1.18
C       9.66      -0.27       1.18
C       8.95       2.29       1.66
C       9.10      -2.29      -1.66
C       7.72       0.34       0.24
C      10.33      -0.34      -0.24
C       8.39      -1.03       0.63
C       9.67       1.03      -0.63
C       9.09      -1.10      -0.79
