30

C       7.63       3.18       1.82
H       4.85       2.69       5.70
H       4.60       2.81       8.02
H       8.28       3.17       8.54
H       6.96       2.01       8.53
H       7.13       1.74       6.22
H       8.55       2.79       6.25
H       6.18       6.21       7.92
H       7.82       5.66       8.28
H       6.67       5.99       5.64
H       4.26       4.54       7.86
H       4.64       4.44       5.56
H       8.25       5.31       6.01
O       5.69       5.73      12.82
O       4.56       3.76      12.78
O       8.42       4.01       1.26
O       7.27       2.05       1.32
C       5.35       4.63      12.27
C       4.99       3.75       7.62
C       7.32       2.93       8.06
C       7.50       2.73       6.53
C       7.16       3.49       3.14
C       6.33       4.08       8.34
C       5.20       3.66       6.09
C       6.71       3.82       5.75
C       7.18       5.21       6.23
C       6.90       5.39       7.74
C       6.94       3.65       4.33
C       6.09       4.23       9.76
C       5.84       4.37      10.95
