20

H       8.47       5.42       5.15
H       8.51       7.20       5.17
H       8.49       7.17       7.70
H       8.44       5.39       7.69
Cl       2.61       6.59       7.85
Cl       2.66       6.59       4.86
O       4.36       6.36      10.03
O       6.61       6.31       9.87
C       5.44       6.35       9.37
O       6.71       6.50       2.99
C       5.52       6.36       3.43
O       4.48       6.17       2.73
C       5.39       6.40       4.93
C       5.35       6.39       7.87
C       6.54       6.36       5.72
C       4.16       6.47       7.10
C       6.52       6.35       7.11
C       4.18       6.47       5.67
C       8.05       6.32       5.64
C       8.04       6.30       7.22
