26

H      10.20       8.62       8.11
H      10.12      13.58       7.84
H       6.36      12.13       5.20
H       6.39       9.64       5.36
H      11.96       8.85       9.71
H      12.30      10.36      10.39
H      12.10      13.58       9.13
H      12.99      12.18       9.36
C       8.22       8.09       6.38
C       8.13      13.84       6.09
C       8.21       9.57       6.49
C       9.22      10.31       7.19
C       7.17      10.23       5.84
C      10.20       9.70       8.01
C      11.12      10.44       8.73
C       8.16      12.38       6.34
C       7.14      11.62       5.76
C       9.18      11.76       7.12
C      10.15      12.49       7.86
C      11.12      11.87       8.62
N      12.08       9.85       9.54
N      12.06      12.59       9.35
O       7.09       7.51       6.35
O       6.98      14.41       6.03
O       9.25      14.44       5.94
O       9.35       7.50       6.28
