16

C       3.92       6.04      14.90
C       4.49       2.82      11.69
C       4.91       4.44      13.30
C       3.51       4.43      13.29
C       3.84       7.08      15.94
O       3.41       1.39      10.25
O       5.69       1.36      10.22
S       5.53       5.57      14.43
S       2.88       3.30      12.16
C       4.56       1.79      10.65
Cl       1.26       5.54      14.40
Cl       7.15       3.31      12.18
O       2.71       7.51      16.37
O       4.99       7.48      16.34
C       2.94       5.34      14.21
C       5.47       3.52      12.38
