64

H       5.09      21.48       9.88
H       1.59      31.36      15.44
H       5.12      23.40      11.47
H       1.56      29.44      13.85
H       2.72      26.48       8.64
H       2.04      27.02      10.20
H      -0.22      27.29       9.15
H       1.00      28.28       8.31
H       0.44      26.76       7.58
H       4.63      25.81      15.13
H       3.96      26.36      16.69
H       6.25      26.07      17.74
H       5.67      24.55      17.00
H       6.89      25.54      16.16
H       2.42      23.32       6.20
H       1.68      24.79       6.90
H      -0.61      23.89       6.26
H       0.46      24.15       4.85
H       0.19      22.51       5.45
H       5.00      28.05      18.41
H       4.25      29.51      19.12
H       6.49      30.33      19.87
H       6.22      28.68      20.47
H       7.28      28.94      19.06
C       3.39      31.93      17.31
C       3.29      20.91       8.01
C       4.31      22.23       9.85
C       2.37      30.60      15.47
C       4.33      23.31      10.72
C       2.35      29.53      14.60
C       3.33      24.29      10.66
C       3.35      28.54      14.65
C       2.33      24.21       9.67
C       4.35      28.63      15.64
C       2.28      23.09       8.82
C       4.40      29.75      16.50
C       3.27      22.09       8.92
C       3.41      30.74      16.40
C       2.25      25.58      12.54
C       4.43      27.26      12.77
C       2.26      26.59      13.49
C       4.42      26.24      11.82
C       3.35      27.46      13.65
C       3.33      25.38      11.67
C       1.80      26.52       9.25
C       0.69      27.25       8.53
C       4.88      26.32      16.07
C       5.99      25.58      16.79
C       1.51      23.73       6.66
C       0.31      23.55       5.76
C       5.17      29.11      18.65
C       6.37      29.28      19.56
O       2.24      32.36      17.66
O       4.44      20.48       7.66
O       4.50      32.42      17.67
O       2.18      20.41       7.65
O       1.36      25.16       9.50
O       5.32      27.67      15.82
O       1.26      23.00       7.90
O       5.42      29.84      17.42
F       1.18      24.75      12.50
F       5.50      28.09      12.82
F       1.20      26.71      14.33
F       5.48      26.13      10.99
