14

O       1.77      16.25       0.37
O       2.95      15.42      -1.39
O      -0.70       9.49       1.38
O      -1.86      10.30      -0.41
H       1.70      13.21      -2.17
H       0.75      14.01       0.65
C       1.21      13.10      -1.20
C       1.33      14.06      -0.28
C       0.32      11.97      -0.99
H      -0.30      11.63      -1.83
C       0.18      11.33       0.19
H       0.83      11.53       1.04
C      -0.87      10.30       0.39
C       2.08      15.32      -0.45
