15

C       0.03       4.82      15.29
H      -0.17       4.86      14.22
O       2.14       5.96      13.88
H       1.07       3.46      16.66
H      -0.01       6.97      15.49
C       0.67       6.14      15.74
O       2.90       7.01      15.74
H       1.94       3.82      15.16
C       0.51       2.31      14.95
H       0.82       6.17      16.83
C       2.01       6.40      15.07
O       0.01       2.35      13.78
C       0.94       3.63      15.58
H      -0.94       4.71      15.79
O       0.75       1.27      15.64
