16

O      30.35      14.38      12.11
C      34.28      12.11      16.71
O      29.21      15.04      13.97
C      32.35      13.23      13.65
C      30.19      14.47      13.37
C      31.14      13.93      15.63
H      34.20      12.16      14.01
H      32.05      13.40      17.52
C      33.22      12.72      15.85
C      31.25      13.86      14.23
O      35.26      11.55      16.11
O      34.12      12.21      17.97
H      32.42      13.19      12.56
H      30.27      14.43      16.07
C      33.33      12.66      14.45
C      32.12      13.36      16.43
