86

H       8.37       9.41      18.36
H       6.90       4.47      28.65
H      10.30       3.44      25.29
H      11.26       3.61      23.80
H      12.08       3.53      25.38
H      12.01       5.91      24.61
H      11.03       5.69      26.06
H       4.00      10.27      23.21
H       4.96      10.44      21.72
H       3.19      10.35      21.63
H       4.23       8.19      20.95
H       3.26       7.97      22.40
H      11.64       8.33      21.84
H      12.22       7.85      23.45
H      13.18       7.45      22.00
H      11.99       5.40      22.72
H      11.32       5.95      21.18
H       3.05       6.03      23.56
H       3.63       5.55      25.17
H       2.09       6.43      25.01
H       3.94       7.93      25.82
H       3.28       8.48      24.29
H       6.26       9.86      14.76
H       6.43      10.77      16.28
H       7.15      11.40      14.77
H       8.93      10.39      16.22
H       8.76       9.49      14.71
H       8.83       3.11      30.73
H       9.01       4.02      32.24
H       8.11       2.48      32.23
H       6.50       4.39      32.30
H       6.34       3.49      30.78
C       8.09       8.49      17.84
C       7.18       5.39      29.17
C       8.01       8.47      16.44
C       7.25       5.41      30.56
C       7.64       7.27      15.82
C       7.62       6.61      31.19
C       7.35       6.12      16.57
C       7.91       7.76      30.44
C       7.41       6.17      17.97
C       7.86       7.71      29.03
C       7.80       7.36      18.60
C       7.47       6.52      28.41
C       7.54       7.19      14.31
C       7.73       6.69      32.69
C       6.32       7.10      26.36
C       8.94       6.78      20.65
C       8.48       5.84      26.31
C       6.78       8.04      20.69
C       8.67       6.22      24.89
C       6.60       7.66      22.11
C       7.57       6.82      24.20
C       7.69       7.06      22.80
C       6.35       7.15      24.87
C       8.92       6.73      22.14
C       9.90       6.01      24.26
C       5.36       7.87      22.75
C      10.04       6.30      22.87
C       5.23       7.58      24.14
C      11.10       5.44      25.00
C      11.19       3.91      24.85
C       4.17       8.44      22.01
C       4.08       9.97      22.16
C      11.41       6.20      22.24
C      12.16       7.54      22.39
C       3.86       7.68      24.76
C       3.11       6.35      24.61
C       8.25       9.73      15.65
C       6.95      10.49      15.35
C       7.02       4.15      31.35
C       8.32       3.39      31.66
N       7.42       6.48      26.98
N       7.85       7.40      20.03
Cl       6.94       4.65      15.77
Cl       8.32       9.23      31.23
Cl       7.00       4.79      18.91
Cl       8.27       9.09      28.09
O       8.62       7.17      13.66
O       6.64       6.71      33.34
O       6.36       7.16      13.84
O       8.91       6.73      33.17
O       5.45       7.58      27.08
O       9.82       6.30      19.92
O       9.19       5.05      26.94
O       6.07       8.83      20.07
