50

H       2.50       8.84      10.94
H      -0.90      10.86       8.07
H      -0.44      10.02       9.59
H      -2.15      10.50       9.31
H       3.27       9.15       9.35
H       3.07       7.47       9.96
H       1.31      10.89       6.55
H       2.75       9.93       7.02
H       1.66      10.62       8.29
H      -2.87       7.95       9.97
H      -1.71       8.46      11.24
H      -2.24       6.75      11.15
C      -2.83       6.57       7.31
C       0.91       5.42       8.24
C       0.88       6.69       5.98
C      -0.71       5.28       8.00
C      -0.72       6.94       5.98
C       0.83       8.03       8.17
C      -0.78       7.78       8.43
C       1.43       6.71       7.48
C      -1.28       6.65       7.44
C       1.23       5.54       9.68
C       1.56       7.68       5.13
C      -1.34       4.88       9.26
C      -1.04       8.30       5.52
C       1.55       4.14       7.89
C       1.19       5.40       5.32
C      -1.00       4.15       7.10
C      -1.38       6.09       4.97
C       2.63       8.47       9.92
C       1.71      10.18       7.28
C      -2.00       7.65      10.57
C      -1.22      10.14       8.83
C       2.98       6.70       7.35
N      -1.94       5.49       4.14
N       1.61       5.53      10.78
N       2.13       8.36       4.37
N      -1.79       4.39      10.22
N      -1.31       9.31       5.00
N       1.94       3.05       7.79
N       1.46       4.43       4.73
N      -1.27       3.19       6.49
O       0.87       9.03       7.17
O      -0.88       7.29       9.74
O      -1.55       8.89       8.18
O       3.50       5.58       7.13
O       3.56       7.82       7.39
O      -3.38       5.48       7.66
O      -3.39       7.58       6.82
O       1.28       8.43       9.41
