38

C      12.53      12.71       1.68
C      11.83      12.61       2.87
C      13.59      13.79       4.02
C      15.39      18.71      -5.10
H      12.89      17.33      -6.69
C      14.29      13.89       2.83
C      13.74      13.44       1.61
C      13.66      13.94      -0.82
C      14.32      13.90       0.36
C      12.30      13.22       4.06
C      14.48      17.65      -5.12
C      10.01      13.24       5.23
N      14.14      19.02      -6.89
C      11.70      13.95       6.47
N      15.19      19.53      -6.15
N       9.52      13.70       6.39
N      10.56      14.14       7.16
H      16.32      16.88      -3.28
H      10.88      12.08       2.88
H       9.34      12.85       4.47
H      14.01      14.23       4.93
H      15.30      14.39       0.44
H      12.09      14.32      -2.92
H      12.12      12.26       0.78
H      12.38      15.94      -4.75
H      12.66      13.49      -0.86
H      16.02      15.30      -1.44
H      15.26      14.40       2.82
H      12.65      14.23       6.91
H      16.17      18.95      -4.37
C      13.71      17.90      -6.27
C      11.41      13.39       5.21
C      14.35      16.58      -4.13
C      15.37      16.34      -3.19
C      15.21      15.43      -2.16
C      14.00      14.71      -2.00
C      13.02      14.88      -3.00
C      13.19      15.80      -4.04
