26

Cl      16.58      14.40       5.61
Cl      14.58      10.60       5.68
Cl      14.56      12.88       7.47
Cl      16.72      12.09       3.88
O      16.08      15.29       2.57
H       9.58      13.38       3.94
H       9.94      14.96       3.20
O      14.89      14.72       0.71
H       9.97      13.50       2.22
H      11.61      14.47       0.73
H      11.29      15.84       1.79
H      12.85      15.69       0.94
O      11.35      12.39       6.78
O      10.40      11.44       4.94
C      13.50      13.01       4.89
C      12.13      13.01       4.64
C      11.68      13.74       3.52
C      12.62      14.37       2.64
C      14.01      14.28       2.88
C      14.41      13.62       4.04
C      15.63      13.15       4.80
C      14.54      12.38       5.78
C      11.21      12.22       5.53
C      15.06      14.81       1.97
C      10.22      13.90       3.22
C      12.08      15.14       1.47
