22

C      10.98       1.70      19.18
C       9.58       1.82      19.28
C       8.98       1.92      20.59
C       9.82       1.90      21.73
C      11.19       1.79      21.60
C       8.74       1.84      18.14
C       7.37       1.94      18.27
C       6.78       2.03      19.55
C       7.58       2.02      20.69
C       5.29       2.09      19.69
O       4.83       2.26      20.87
O       4.61       1.95      18.63
H      11.46       1.63      18.20
O      13.72       1.43      18.99
H       9.36       1.98      22.72
O      13.95       1.66      21.24
H      11.85       1.79      22.47
H       9.20       1.77      17.15
H       6.72       1.93      17.40
H       7.10       2.09      21.67
C      13.26       1.58      20.17
C      11.78       1.68      20.31
