42

H      14.63      18.08      15.59
H      17.90      14.86      19.77
H      14.59      17.38      22.48
H      17.20      14.81      12.88
H      14.44      17.45      19.99
H      17.26      14.66      15.36
O      16.01      17.76      10.77
O      17.56      16.24      24.59
O      16.05      15.49      10.74
O      15.28      16.25      24.61
O      18.24      14.65      22.34
O      14.41      18.42      13.02
H      19.44      16.25      22.90
H      19.99      15.36      21.45
H      20.47      13.34      22.91
H      21.41      14.77      23.43
H      19.95      14.28      24.34
H      15.99      19.65      12.46
H      15.09      20.18      13.91
H      13.07      20.64      12.45
H      14.49      21.59      11.93
H      14.02      20.13      11.02
C      16.00      16.61      11.35
C      16.40      16.21      24.01
C      19.55      15.25      22.46
C      20.39      14.35      23.34
C      14.99      19.74      12.90
C      14.09      20.57      12.02
C      17.18      15.45      20.35
C      15.22      17.38      15.01
C      17.29      15.44      21.74
C      15.22      17.48      13.62
C      16.36      16.17      22.52
C      15.96      16.56      12.84
C      15.32      16.86      21.87
C      16.66      15.54      13.49
C      15.23      16.89      20.49
C      16.69      15.45      14.87
C      16.17      16.18      19.70
C      15.97      16.38      15.66
C      16.09      16.22      18.29
C      16.01      16.30      17.07
