20

C      16.60      11.05       4.85
C      19.79      11.99       3.37
C      16.50      12.34       5.41
C      19.90      10.69       2.83
C      18.59      12.10       4.13
C      17.83      10.93       4.13
S      17.87      13.37       5.05
S      18.56       9.65       3.24
H      15.72       9.26       4.38
H      14.80      10.32       5.42
H      20.67      13.79       3.79
H      21.55      12.74       2.70
N      15.69      10.05       5.01
N      20.68      13.00       3.17
C      15.41      12.86       6.20
C      20.99      10.17       2.05
O      14.37      12.10       6.33
O      15.56      14.04       6.69
O      20.96       8.92       1.74
O      21.93      11.00       1.71
