32

H       6.95       9.79       5.78
H       2.34       5.68      -3.91
H       9.03      13.06       3.85
H       6.95       9.29       0.44
H       2.50      11.15      -0.47
H       4.68       8.56      -6.14
C       3.49      10.73      -0.27
C       4.63       8.87       0.15
C       4.82      11.55      -0.19
C       3.70       8.25      -3.34
C       6.68      11.34       3.26
C       5.55      10.46      -1.06
C       3.90       9.96       1.02
C       4.20       9.63      -1.18
C       5.26      10.78       1.13
C       3.80       8.96      -2.35
C       5.93      11.21       2.30
C       4.07       7.73      -5.80
C       7.63      10.58       5.48
C       2.88       6.25      -4.66
C       8.69      12.26       4.50
C       3.57       7.47      -4.50
C       7.58      11.41       4.34
C       5.96       9.67       0.21
N       2.95       5.83      -5.94
N       9.34      11.94       5.63
N       3.70       6.75      -6.63
N       8.69      10.90       6.25
F       3.07       9.71       2.06
F       6.37      10.71      -2.12
F       4.53       7.53       0.33
F       4.90      12.89      -0.38
