16

C       4.53       0.19       7.75
C       2.16      -0.19       9.18
C       3.34       1.64       6.08
H       5.44       0.35       7.18
H       1.24      -0.35       9.76
O       2.21      -1.95      11.34
H       5.45      -1.07       9.26
C       2.15       0.59       8.03
C       4.54      -0.59       8.90
H       1.24       1.07       7.68
O       4.48      -1.98      11.32
O       2.21       1.98       5.61
O       4.48       1.95       5.60
C       3.35      -1.64      10.85
C       3.35      -0.78       9.63
C       3.34       0.78       7.31
