19

H      -2.85       1.71      10.38
H       2.42       0.56      14.41
H       2.64       1.64      13.01
H       2.59      -0.12      12.78
C      -0.87       2.23       8.31
C      -0.22       0.17      15.49
C       0.71       0.81      13.14
C      -1.79       1.60      10.64
C      -0.29       0.58      14.08
C      -0.78       1.83       9.72
C      -1.26       1.23      11.89
C       0.15       1.18      11.90
C       2.17       0.71      13.36
S      -1.87       0.82      13.45
S       0.82       1.59      10.37
O      -2.03       2.36       7.79
O      -1.35      -0.03      16.05
O       0.92       0.03      16.04
O       0.26       2.42       7.74
