28

C       6.15      10.17      13.16
O       6.75      10.81      18.12
O       6.39       8.59      17.86
O       6.31       7.94       8.77
O       7.01       5.80       8.49
H       8.37       4.97      10.48
H       6.33       8.69      10.97
H       9.22       6.22      15.05
H       9.14       5.07      12.86
H       5.47      11.76      16.10
H       5.96      10.26      12.10
H       5.14      12.01      13.63
H       8.35       7.97      16.56
C       6.59       9.76      17.41
C       6.87       9.06      13.65
C       7.15       8.97      15.05
C       7.32       7.98      12.77
C       8.13       6.93      13.30
C       8.52       6.98      14.67
C       8.04       7.95      15.51
C       6.94       7.92      11.42
C       8.09       5.80      11.13
C       6.58       9.94      15.92
C       6.84       6.86       9.18
C       8.51       5.86      12.45
C       7.30       6.85      10.61
C       5.88      11.02      15.41
C       5.68      11.15      14.02
