16

O       3.57      10.05       7.51
O       1.33      10.26       7.61
C       2.46      10.44       7.05
O       3.73      13.41       1.43
H       0.41      11.73       5.83
H       0.49      12.94       3.63
H       4.65      11.94       3.21
H       4.57      10.73       5.42
O       1.48      13.62       1.53
C       1.33      11.78       5.25
C       1.37      12.45       4.03
C       2.57      12.51       3.30
C       3.73      11.89       3.80
C       3.69      11.22       5.02
C       2.49      11.17       5.75
C       2.60      13.23       2.00
