42

H      15.20       9.43      10.74
H      16.21       7.03       5.88
H      18.68       9.63       6.86
H      18.22      10.71       9.63
H      16.75       4.83       8.55
H      18.36       6.54      10.92
H      18.78       9.01      11.29
H      14.87      10.39       8.29
H      15.17       6.18       9.18
H      14.89       7.70      11.00
C      21.55       8.38       9.04
C      15.40       8.42      10.34
C      16.91       8.14      10.35
C      10.71       8.28       9.04
C      16.84       7.01       8.05
C      16.88       9.57       8.24
C      15.36       9.44       8.04
C      15.34       6.92       8.39
C      13.37       8.29       8.95
C      12.16       8.28       9.01
C      17.46       8.24       8.85
C      14.82       8.28       8.91
C      17.09       7.18       6.52
C      17.65      10.04       6.95
C      17.20      10.76       9.17
C      18.91       8.26       8.86
C      17.50       5.64       8.37
C      17.28       6.76      10.93
C      17.67       9.07      11.34
C      20.11       8.38       8.97
O      18.20       7.42       6.08
O      17.18      10.84       6.18
O      16.46      11.70       9.35
O      18.69       5.44       8.40
O      16.46       5.98      11.38
O      17.09       9.73      12.18
O      22.07       7.22       9.07
O      22.13       9.50       9.05
O      10.14       7.14       9.04
O      10.16       9.42       9.05
F      14.61       6.45       7.28
F      15.06       9.15       6.69
