16

C      13.88      14.84      22.23
O      13.66      14.69      23.48
O       8.98      11.78      19.09
O      14.85      15.45      21.70
O      10.17      12.54      17.31
C      10.96      13.02      19.49
C      12.88      14.21      21.30
C      12.08      13.72      19.03
C       9.96      12.39      18.56
C      13.01      14.30      19.90
C      10.82      12.93      20.89
C      11.75      13.51      21.76
F      12.33      13.87      17.71
F      11.50      13.36      23.07
F      14.04      14.94      19.32
F       9.79      12.29      21.47
