16

H       7.80       3.67       7.12
H       8.33       0.03      10.47
O       9.19       5.34       8.34
C       9.35       4.41       9.21
C       6.79      -0.71       8.37
O       6.95      -1.63       9.24
C       8.70       3.09       8.99
O      10.02       4.59      10.28
C       7.44       0.61       8.60
O       6.11      -0.89       7.31
C       8.85       2.06       9.93
C       7.28       1.64       7.65
C       7.91       2.87       7.84
C       8.23       0.83       9.74
H       9.47       2.24      10.81
H       6.66       1.46       6.78
