36

N       7.81      17.46      16.95
N       4.30      16.26      13.57
N       2.26      17.20      12.78
N       3.45      18.25      14.56
N      -0.62      21.16      13.87
N       2.64      13.02      10.08
C       7.66      16.46      16.07
C       6.57      16.38      15.22
H       8.45      15.71      16.07
C       5.58      17.37      15.29
H       6.46      15.55      14.52
C       5.75      18.42      16.19
H       5.00      19.21      16.26
C       6.88      18.44      17.00
C       4.38      17.29      14.43
H       7.07      19.23      17.72
C       3.22      16.26      12.78
H       0.18      18.35      12.18
C       2.41      18.16      13.71
H      -1.57      20.18      12.32
C       1.35      19.20      13.78
H       0.42      22.02      15.44
C       0.26      19.15      12.91
H       2.27      20.30      15.40
H       4.08      13.71      13.06
C      -0.70      20.15      12.98
H       3.64      11.81      11.44
C       0.42      21.19      14.73
H       1.71      14.35       8.80
C       1.42      20.23      14.72
C       3.06      15.15      11.82
H       1.99      16.32      10.36
C       3.56      13.88      12.13
C       3.31      12.84      11.24
C       2.20      14.26       9.77
C       2.37      15.34      10.62
