26

Cl       2.84      11.68       7.03
Cl       6.73      16.11       8.69
O       1.35      14.63       3.21
H       1.94      13.11       5.02
O       8.10      13.24      12.60
H       7.51      14.75      10.79
O       6.95      11.27      12.59
H       4.13      16.79       5.11
H       5.32      16.01       7.08
O       2.50      16.59       3.23
H       5.33      11.06      10.69
H       4.21      11.81       8.68
C       2.21      15.45       3.70
C       7.23      12.43      12.13
C       2.94      15.01       4.92
C       6.50      12.86      10.90
C       2.69      13.76       5.48
C       3.37      13.30       6.61
C       6.78      14.10      10.32
C       6.14      14.53       9.16
C       5.56      12.04      10.27
C       4.93      12.48       9.12
C       3.91      15.81       5.53
C       4.58      15.35       6.65
C       4.37      14.09       7.27
C       5.15      13.73       8.49
