21

C       8.43      13.88      16.00
H      11.16      15.28      17.01
C       9.16      13.87      14.84
H       7.42      13.53      16.18
C      11.48      14.61      14.27
N       9.17      14.46      17.00
H       8.93      13.53      13.84
C      11.23      14.86      12.92
N      10.38      14.45      15.16
H      10.20      14.98      12.57
C      12.29      14.95      12.03
H      12.11      15.10      10.97
C      13.61      14.81      12.49
C      13.85      14.60      13.85
H      14.88      14.50      14.19
O      15.87      14.34      11.89
H      12.99      14.30      15.81
C      12.79      14.50      14.75
O      14.55      15.31      10.34
C      14.74      14.83      11.51
C      10.35      14.79      16.48
