30

H      11.61       2.07      12.43
Cl      11.72       4.83      12.81
Cl      12.27      -0.41      11.73
Cl       9.50      -4.62       6.75
H      10.23      -4.72      11.58
H      11.49       4.23       7.97
H       9.98      -1.97       7.46
H      11.39       1.76       8.13
H      10.09       0.06       8.80
H      10.54      -2.27      11.74
O      10.70       6.70      10.64
C      11.52       6.04       9.92
O      10.60      -6.82      10.26
O      12.32       6.50       9.04
C       9.76      -6.23       9.49
O       8.84      -6.77       8.80
C       9.90      -4.74       9.46
C      10.17      -4.10      10.68
C      10.36      -2.73      10.77
C      10.33      -1.93       9.60
C      10.02      -2.56       8.38
C       9.80      -3.94       8.31
C      11.42       2.36       9.04
C      11.47       3.74       8.95
C      11.57       3.92      11.35
C      11.55       2.53      11.45
C      11.44       1.73      10.30
C      10.58      -0.50       9.60
C      11.34       0.27      10.43
C      11.52       4.55      10.09
