28

H       5.36      22.51      17.22
H       5.30      24.52      18.71
H       9.58      24.79      18.54
H       9.65      22.80      17.02
H       5.51      18.96      14.62
H       5.62      16.97      13.09
H       9.90      17.24      13.02
H       9.81      19.25      14.52
C       7.82      15.82      12.07
C       6.28      23.01      17.51
C       6.24      24.13      18.34
C       7.44      24.76      18.72
C       8.66      24.28      18.24
C       8.71      23.18      17.40
C       7.51      22.52      17.03
C       7.55      21.37      16.20
C       7.60      20.38      15.49
C       6.47      18.58      14.26
C       6.53      17.48      13.43
C       7.77      16.99      12.98
C       8.95      17.63      13.38
C       8.90      18.74      14.21
C       7.65      19.24      14.66
C       7.40      25.92      19.65
O       6.70      15.35      11.69
O       8.97      15.38      11.74
O       8.53      26.35      20.07
O       6.26      26.38      19.99
