16

C      26.32      15.95      12.92
Br      24.49      15.54      13.06
C      27.39      15.25      13.47
O      26.28      13.53      14.62
O      28.56      13.60      14.62
C      26.76      17.08      12.20
C      28.16      17.22      12.21
C      28.60      18.36      11.50
C      27.53      19.07      10.95
Br      30.42      18.78      11.35
C      27.40      14.04      14.30
S      28.93      15.97      13.10
S      25.99      18.33      11.31
O      26.37      20.65       9.70
O      28.62      20.91       9.99
C      27.51      20.30      10.16
