16

C      24.53       6.79      12.84
C      23.50       7.44      11.97
C      23.64       8.78      11.61
C      22.69       9.39      10.79
C      21.59       8.66      10.32
C      21.45       7.32      10.68
C      22.40       6.71      11.50
Cl      22.21       5.05      11.93
H      24.49       9.36      11.97
Cl      22.88      11.05      10.36
C      20.55       9.30       9.45
H      20.59       6.75      10.32
O      24.35       6.89      14.10
O      25.49       6.22      12.24
O      20.74       9.21       8.19
O      19.57       9.84      10.05
