29

C       5.39      -5.87      10.48
C       3.52      -4.20      15.05
N       8.08      -4.68      14.66
H       3.78      -6.63      16.96
H       6.09      -3.37      16.57
H       7.78      -6.99      16.60
H       5.53      -8.06      15.24
O       5.36      -7.02       9.88
O       5.34      -4.74       9.91
C       4.68      -6.23      16.48
C       4.70      -4.99      15.52
C       5.48      -5.90      11.91
O       7.22      -5.31      21.93
O       4.94      -5.41      21.89
C       6.10      -5.47      19.90
C       5.65      -7.02      15.55
C       5.67      -5.81      14.54
C       6.88      -6.44      16.30
C       5.92      -5.64      17.28
C       6.90      -5.21      15.36
C       5.95      -4.41      16.27
C       5.58      -5.86      13.13
C       6.04      -5.55      18.68
O       8.18      -3.45      14.53
O       8.86      -5.53      14.20
C       6.08      -5.39      21.33
H       3.02      -3.73      15.91
H       3.84      -3.40      14.36
H       2.80      -4.84      14.53
