26

H       3.20      10.98       8.65
H       3.09      13.46       8.65
N       5.24      10.88       9.01
H       7.37      13.46       9.44
H       2.27      17.61       8.08
N       4.27      20.24       8.73
H       6.28      15.56       9.32
H       3.32      15.54       8.46
H       6.25      20.18       9.35
H       6.39      17.71       9.43
O       7.54      10.91       9.43
O       2.04      20.15       8.05
H       7.46       9.90       9.34
H       2.09      21.16       8.19
C       4.10      11.58       8.81
C       4.05      12.96       8.81
C       5.24      13.69       9.04
C       6.41      12.96       9.26
C       6.39      11.55       9.23
C       5.31      15.14       9.05
C       4.28      15.97       8.75
C       3.18      18.13       8.38
C       4.32      17.43       8.75
C       5.46      18.18       9.12
C       5.39      19.56       9.09
C       3.17      19.54       8.39
