32

C       8.96       1.45       8.40
C      10.03       2.16       7.78
C       8.14       0.61       7.58
H      12.46       3.05       3.96
C       8.40       0.44       6.25
H      11.14       3.91      10.53
C       9.50       1.09       5.61
H      13.02       4.09       6.12
H      12.55       4.40       8.53
C      10.30       1.99       6.39
H       7.72      -0.19       5.68
C       9.83       0.86       4.24
H       7.28       0.11       8.04
C       9.51       2.49      10.53
H       7.90       1.08      10.26
H       9.48      -0.29       2.60
H       8.45      -0.64       3.96
N       9.11      -0.03       3.51
O       8.38       1.92      12.55
O       9.49       3.88      12.45
O      10.93       0.37       1.58
O      12.20       2.22       1.77
C      11.35       1.39       2.26
C      10.55       3.21       9.92
C      10.84       3.05       8.56
C      11.39       2.70       5.78
C       9.13       2.76      11.94
C      12.19       3.57       6.60
C      11.93       3.74       7.92
C      11.64       2.51       4.43
C      10.90       1.61       3.64
C       8.72       1.61       9.78
