17

H      11.43       3.60      29.25
H      12.03      -1.08      27.69
O      13.44       3.65      30.64
O      14.64       1.72      30.64
H       9.04       2.21      27.05
C      13.66       2.45      30.28
O       9.59       2.78      27.66
O      10.05      -1.16      26.29
C       9.84       0.04      26.67
C      10.80       0.67      27.59
C      12.67       1.83      29.34
O       8.82       0.76      26.30
C      12.84       0.50      28.91
C      11.57       2.57      28.92
C      11.92      -0.06      28.04
C      10.63       2.01      28.04
H      13.71      -0.07      29.25
