28

N       2.07      -7.53      20.46
N       2.07      -6.43      19.84
O       2.90      -0.82      22.80
O       1.03      -1.56      23.84
O       2.89     -13.13      17.50
O       1.02     -12.39      16.46
H       1.23      -9.85      16.54
H       1.33      -7.70      17.83
H       2.65      -9.89      21.30
H       2.65      -4.06      19.00
H       1.33      -6.25      22.47
H       1.23      -4.10      23.76
F       2.73     -12.20      20.11
F       2.73      -1.76      20.19
C       1.96      -1.67      22.98
C       1.96     -12.29      17.32
C       1.97     -11.05      18.15
C       1.57      -9.84      17.57
C       1.61      -8.65      18.28
C       2.02      -8.67      19.63
C       2.37      -9.88      20.25
C       2.37     -11.04      19.49
C       2.37      -4.08      20.05
C       2.02      -5.29      20.67
C       1.62      -5.31      22.02
C       1.57      -4.12      22.73
C       1.97      -2.90      22.15
C       2.37      -2.91      20.81
