30

H      12.71      11.00      11.34
H      23.92       8.12       8.37
H      12.71       8.12       8.37
H      23.93      10.99      11.34
H      15.21      11.07      11.41
H      21.42       8.04       8.32
H      15.21       8.04       8.32
H      21.43      11.07      11.41
H      17.08       9.30       7.72
H      19.55       9.82      12.00
H      17.08       9.82      12.00
N      12.63       9.56       9.86
H      19.55       9.30       7.72
N      24.00       9.56       9.85
C      13.31      10.36      10.69
C      23.32       8.75       9.02
C      13.32       8.75       9.02
C      23.32      10.36      10.69
C      14.70      10.39      10.73
C      21.93       8.73       8.99
C      14.70       8.73       8.99
C      21.93      10.39      10.73
C      15.43       9.56       9.86
C      21.20       9.56       9.86
C      17.62       9.39       8.66
C      19.01       9.73      11.06
C      17.62       9.73      11.06
C      19.01       9.39       8.66
C      19.73       9.56       9.86
C      16.90       9.56       9.86
