28

Br       4.32      19.52      13.99
Br       4.33      21.51      10.33
C       1.51      24.94       7.38
H      -0.93      19.02      16.34
H       3.29      18.24      16.44
H      -0.63      20.40      14.28
C       1.01      17.75      17.77
C       1.16      18.56      16.52
C       0.05      19.15      15.89
C       2.44      18.70      15.95
C       2.59      19.41      14.77
C       0.21      19.90      14.74
C       1.49      20.05      14.14
C       1.62      20.83      12.98
C       1.66      21.54      11.98
C       1.63      22.36      10.84
C       0.46      23.09      10.53
C       2.74      22.48       9.97
C       2.69      23.29       8.85
C       0.41      23.90       9.40
C       1.52      24.01       8.56
O       2.08      17.47      18.41
O      -0.17      17.40      18.10
O       2.60      25.07       6.74
O       0.42      25.54       7.12
H      -0.39      23.02      11.20
H       3.56      23.39       8.20
H      -0.50      24.45       9.16
