38

N      17.70      -0.16       1.13
N      17.80       0.46       0.02
H      20.85       4.64       4.42
N      17.51       2.89       1.36
H      18.52      -4.73      -3.93
H      17.86      -1.30      -6.48
O      16.30       2.68       1.24
O      18.13       3.84       0.85
H      17.26      -3.52      -2.27
H      17.09      -2.19      -0.17
H      18.58      -1.22       3.25
H      19.95      -0.14       5.01
H      18.34       0.06      -4.44
H      18.13       1.37      -2.33
H      21.27       0.96       6.65
H      19.13       3.71       3.20
C      21.30       1.97       6.26
C      21.07       3.85       5.13
C      20.63       2.51       5.14
C      18.37      -4.03      -4.74
C      18.04      -2.28      -6.04
C      18.08      -2.65      -4.69
C      19.72       1.86       4.21
C      19.05       2.62       3.23
C      18.26       2.01       2.27
C      18.13       0.60       2.22
C      18.70      -0.14       3.27
C      19.48       0.48       4.24
C      17.35      -1.71      -1.12
C      17.46      -2.44      -2.28
C      17.63      -0.33      -1.13
C      17.86      -1.83      -3.50
C      18.04      -0.44      -3.51
C      17.93       0.30      -2.35
N      22.05       2.90       6.88
N      21.91       4.07       6.16
N      18.48      -4.44      -6.02
N      18.26      -3.35      -6.83
