33

H       2.80       9.22       7.42
H      -1.07      13.32       1.72
H      -2.09      11.17       2.48
H      -2.03       9.19       3.91
H       3.86      13.26       5.07
H       2.77      14.53       3.23
H      -0.81       6.51       5.95
H      -2.07       7.71       6.20
H      -1.49       7.37       4.56
H       3.87      11.31       6.59
C       0.98       7.35       7.71
C      -0.11       8.54       5.74
C       0.95       8.43       6.67
C       1.99       9.37       6.70
C       2.00      10.48       5.86
C       0.92      10.64       4.94
C      -0.13       9.67       4.88
C       3.05      11.45       5.89
C       3.04      12.53       5.05
C       1.97      12.73       4.12
C       0.89      11.78       4.09
C      -0.20      11.99       3.19
C      -1.24      11.01       3.15
C      -1.20       9.90       3.95
C       1.94      13.82       3.24
C       0.85      14.03       2.39
C      -0.22      13.13       2.38
C       0.84      15.22       1.49
C      -1.17       7.48       5.60
O       2.13       6.95       8.11
O      -0.14       6.93       8.14
O       1.97      15.71       1.17
O      -0.30      15.66       1.10
