40

C      15.86      -2.63       9.91
C      15.81      -1.42      10.65
C      14.63      -0.67      10.63
C      13.50      -1.10       9.91
C      13.58      -2.31       9.19
C      14.74      -3.08       9.17
C      12.32      -0.33       9.91
C      11.29       0.33       9.91
C      10.10       1.10       9.91
C       9.88       2.07      10.90
H      14.59       0.27      11.18
H      12.70      -2.64       8.64
H      10.63       2.22      11.68
C       9.13       0.91       8.92
C       8.72       2.85      10.92
H       9.30       0.17       8.14
C       7.94       1.65       8.90
C       7.74       2.63       9.91
C      16.97      -0.87      11.45
C      14.71      -4.36       8.37
C       8.57       3.86      12.03
C       6.97       1.37       7.79
O       5.42       2.89       9.47
O       6.56       4.64      10.35
H      16.77       0.18      11.73
H      17.91      -0.89      10.89
H      17.13      -1.45      12.37
H      13.67      -4.60       8.09
H      15.12      -5.21       8.93
H      15.30      -4.27       7.45
H       9.35       3.68      12.79
H       7.59       3.80      12.52
H       8.68       4.88      11.66
H       7.44       0.74       7.03
H       6.62       2.29       7.30
H       6.07       0.86       8.16
O      17.84      -3.42      10.97
O      17.39      -4.11       8.85
C       6.50       3.44       9.91
C      17.11      -3.44       9.91
