28

H       9.67       8.48      10.33
H       9.62      13.45      10.09
H       5.86      12.04       7.45
H       5.89       9.55       7.57
H      10.26       8.91      12.90
H      12.25      13.49      10.24
C       7.70       7.98       8.61
C       7.63      13.75       8.36
C       7.70       9.47       8.71
C       8.71      10.20       9.41
C       6.67      10.13       8.06
C       9.67       9.57      10.24
C      10.60      10.31      10.95
C       7.67      12.28       8.57
C       6.65      11.53       7.99
C       8.70      11.64       9.33
C       9.68      12.37      10.07
C      10.62      11.73      10.85
C      11.66       9.61      11.77
C      11.54      12.49      11.76
O       6.57       7.40       8.67
O       6.49      14.32       8.47
O       8.72      14.35       8.08
O       8.82       7.40       8.40
O      11.23       8.82      12.78
O      12.84       9.71      11.51
O      12.31      13.47      11.22
O      11.58      12.26      12.95
