16

O       7.52       7.69      17.00
O       7.45       9.00      18.88
C       7.48       7.88      18.27
S       7.56       5.12      18.29
S       7.37       4.36      22.39
C       7.45       1.60      22.37
C       7.41       6.53      20.48
C       7.53       2.93      20.19
C       7.48       6.67      19.10
C       7.46       2.83      21.57
H       7.59       2.06      19.54
C       7.43       5.18      20.88
Cl       7.30       7.80      21.63
C       7.51       4.28      19.79
O       7.36       1.75      23.64
O       7.52       0.49      21.74
