15

C      11.38       8.48       5.66
H      11.58       8.13       7.75
N       8.22      10.24       5.09
C      12.00       8.01       6.75
O      13.67       6.74       7.80
C       8.32      10.22       6.43
H       7.58      10.62       7.12
H       9.50       9.51       3.53
H       9.82       9.57       7.78
C       9.33       9.62       4.60
C      13.29       7.29       6.68
N       9.45       9.59       6.80
O      13.96       7.21       5.61
H      11.83       8.31       4.68
C      10.13       9.19       5.66
