98

H       2.33       7.74      24.25
H       5.28       7.61      35.31
H       2.43       8.02      26.72
H       6.54       5.69      18.05
H       6.94       2.86      24.54
H       5.97       2.70      31.39
H       6.99       3.03      27.03
H       2.76       2.60      17.36
H       7.54       6.55      19.88
H       5.29       1.85      27.86
H       1.83       3.06      36.72
H       4.13       2.00      35.32
H       3.17       0.28      33.79
H       1.56       0.95      32.03
H       0.83       3.33      31.85
H       1.75       5.04      33.40
H       1.01       5.40      20.46
H      -0.80       4.52      21.93
H      -0.46       2.40      23.19
H       1.71       1.18      23.00
H       3.52       2.08      21.55
H       5.70       8.49      37.37
H       4.05       9.70      32.00
H       4.33      10.12      29.14
C       4.71       4.61      16.47
C       4.09       5.17      39.15
C       3.78       6.11      22.72
C       5.40       4.21      22.85
C       5.67       5.47      20.02
C       5.70       5.31      18.64
C       3.53       4.21      18.67
C       3.48       4.34      20.08
C       4.56       4.96      20.72
C       4.65       5.36      24.96
C       3.81       6.21      24.20
C       3.00       7.13      24.85
C       5.45       4.38      24.32
C       4.66       4.68      17.97
C       4.08       5.42      37.65
C       4.18       6.77      28.43
C       5.27       4.53      28.58
C       4.74       5.70      29.20
C       3.90       8.00      29.09
C       3.86       8.05      30.51
C       4.20       6.93      31.27
C       4.73       5.78      30.63
C       5.25       4.72      31.40
C       5.29       4.81      32.87
C       3.96       6.92      32.72
C       4.78       6.73      35.72
C       4.65       6.59      37.11
C       3.51       4.48      36.77
C       3.58       4.65      35.37
C       4.27       5.76      34.86
C       3.97       6.54      27.01
C       4.69       5.48      26.38
C       5.45       4.54      27.14
C       3.08       7.30      26.24
C       6.30       3.57      25.07
C       5.62       3.41      29.39
C       5.66       3.55      30.79
C       6.30       3.65      26.46
C       2.44       3.50      17.91
C       6.81       6.18      20.63
C       5.74       2.03      28.87
C       2.76       3.30      37.29
C       3.00       3.63      34.46
C       3.39       2.28      34.57
C       2.87       1.33      33.70
C       1.95       1.70      32.71
C       1.55       3.04      32.61
C       2.08       4.00      33.47
C       2.37       3.79      20.91
C       1.15       4.48      21.02
C       0.14       3.98      21.84
C       0.34       2.79      22.56
C       1.55       2.11      22.45
C       2.57       2.61      21.63
C       5.11       7.73      37.94
C       3.40       9.31      31.19
C       3.99       9.34      28.43
N       4.54       5.07      22.16
N       4.51       5.85      33.45
O       3.59       4.39      15.89
O       5.83       4.81      15.91
O       2.98       5.19      39.75
O       5.24       4.95      39.63
O       3.13       6.88      22.02
O       3.30       7.81      33.28
O       6.04       3.34      22.26
O       5.90       4.02      33.59
O       1.26       3.84      17.96
O       7.00       6.38      21.83
O       6.22       1.10      29.51
O       3.09       2.62      38.25
O       4.86       7.89      39.12
O       2.39       9.91      30.83
O       3.88       9.63      27.25
