36

H       7.14       4.68       7.58
H       9.51      -4.14       9.36
H       7.02       2.19       7.26
H       9.70      -1.65       9.11
H       6.17      -1.66       6.67
H      10.86       1.79       9.11
H       3.97      -2.95       6.11
H      13.05       3.01       9.91
C       7.71      -5.78       8.45
C       8.95       1.86       8.17
C       6.89      -2.22       7.27
C      10.08       2.45       8.75
C       6.78      -3.60       7.42
C      10.15       3.83       8.91
C       9.05       6.14       8.63
C       7.73      -4.30       8.19
C       9.07       4.64       8.49
C       8.78      -3.58       8.78
C       7.96       4.03       7.89
C       8.89      -2.21       8.64
C       7.89       2.66       7.71
C       7.94      -1.52       7.88
S       5.41      -4.44       6.59
S      11.59       4.54       9.73
N       7.92      -0.11       7.73
N       8.97       0.45       8.17
O       6.63      -6.40       8.21
O       5.94      -5.38       5.64
O       4.36      -4.77       7.53
O       4.81      -3.22       5.68
O      12.55       5.00       8.76
O      11.14       5.35      10.81
O      10.13       6.75       8.37
O      12.23       3.21      10.41
O       8.78      -6.30       8.91
O       7.93       6.66       8.94
