13

O      15.49       3.92       4.28
C      16.38       5.42       6.52
C      14.62       4.56       4.96
H      17.08       4.70       6.09
C      15.07       5.48       6.05
C      14.20       6.40       6.64
H      13.15       6.47       6.33
C      14.67       7.23       7.65
O      13.37       4.42       4.74
H      17.78       6.23       7.96
C      16.77       6.26       7.55
N      15.94       7.17       8.10
H      14.02       7.97       8.11
