26

H       2.79      13.80       1.77
H       2.16      14.43       0.24
H       3.73      16.16       0.33
H       4.38      15.49       1.84
H       4.63      15.38      -1.88
H       5.95      14.20      -1.96
H       3.09      13.61      -1.96
H       4.42      12.45      -1.99
H       4.68      12.10       1.74
H       5.33      11.52       0.21
H       6.90      13.25       0.21
O       1.56      12.01      -0.74
H       6.28      13.80       1.76
O       2.78      10.77       0.71
O       6.08      17.03      -0.53
O       7.50      15.77       0.72
C       2.59      11.79      -0.02
C       6.41      15.95       0.08
C       3.07      14.10       0.75
C       4.12      15.24       0.80
C       5.41      14.81       0.05
C       5.03      14.48      -1.41
C       4.01      13.31      -1.44
C       3.66      12.88      -0.00
C       4.93      12.41       0.72
C       5.98      13.55       0.73
