26

H      -2.68      -0.45      17.27
H      -3.46      -0.68      19.07
H      -4.40      -0.90      21.32
H       1.13       0.58      19.02
H       2.06       0.83      16.77
H       0.34       0.41      20.81
C      -2.05      -0.26      14.79
C      -1.12      -0.01      15.91
C      -1.64      -0.16      17.21
C      -1.46      -0.11      19.72
C      -2.81      -0.48      19.92
C      -3.35      -0.62      21.19
C      -2.59      -0.41      22.36
C      -0.88       0.04      18.37
C       0.48       0.41      18.16
C       1.02       0.56      16.90
C       0.25       0.37      15.73
C      -1.22      -0.04      22.17
C      -0.71       0.11      20.87
C      -0.29       0.23      23.29
O      -3.17      -0.57      23.56
O      -3.23      -0.68      15.00
O      -1.64      -0.02      13.59
O       0.89       0.66      23.08
O      -0.71       0.00      24.49
O       0.82       0.54      14.53
