23

C       2.61       5.29      15.29
O       4.14       5.83      13.03
H       3.13       5.37      17.90
H       8.34       6.61      17.76
H       8.45       4.83      17.75
O       6.35       5.35      13.12
H       8.35       4.84      15.23
H       8.23       6.62      15.24
O       6.43       5.44      20.08
O       4.18       5.72      20.14
H       2.34       6.18      14.72
H       2.57       4.45      14.59
H       1.85       5.12      16.07
C       5.22       5.57      13.66
C       5.29       5.57      19.52
C       5.27       5.54      18.03
C       5.17       5.53      15.15
C       6.42       5.60      17.26
C       3.97       5.43      15.92
C       6.37       5.60      15.87
C       4.06       5.44      17.32
C       7.94       5.70      17.30
C       7.88       5.70      15.72
