40

C      27.92      19.94      15.06
C      27.10      19.93      13.92
C      26.29      21.04      13.64
C      26.25      22.14      14.49
C      25.32      23.30      14.19
C      23.85      22.96      14.24
C      23.13      23.93      14.81
C      23.99      25.09      15.25
C      25.43      24.51      15.17
C      27.07      18.74      13.03
H      25.08      26.51      20.48
H      24.68      24.57      18.95
H      27.67      26.10      16.25
H      27.97      28.10      17.72
H      25.09      23.43      16.99
H      27.62      23.13      17.32
H      28.60      21.08      16.75
H      28.53      19.07      15.28
H      25.67      21.02      12.74
H      25.56      23.65      13.17
H      23.45      22.03      13.83
H      22.04      23.93      14.92
H      23.75      25.45      16.26
H      23.87      25.96      14.58
H      26.15      25.25      14.79
N      27.13      23.27      16.44
O      26.48      28.44      21.31
O      27.08      29.70      19.51
O      26.67      18.90      11.83
O      27.46      17.63      13.55
C      26.72      28.61      20.07
C      26.54      27.42      19.18
C      25.63      26.42      19.54
C      25.42      25.34      18.69
C      26.14      25.22      17.49
C      27.08      26.21      17.16
C      27.26      27.31      17.99
C      25.90      24.05      16.56
C      27.11      22.16      15.61
C      27.95      21.06      15.88
