40

H      -5.62      10.24       6.22
C      -7.14       7.69       2.17
H      -7.40       5.33       3.42
H      -6.51       4.18      10.04
H      -6.79       3.27       7.75
H      -6.16       9.39       3.96
H      -5.13       8.20      10.58
C      -6.30       5.15       9.60
H      -4.86      10.90       8.23
C      -6.04      10.59       9.88
H      -6.27       9.79      10.58
H      -6.98      10.98       9.48
H      -5.53      11.39      10.43
N      -5.14      10.11       8.81
N      -7.08       3.37       5.13
O      -5.99       4.77      12.30
H      -7.25       2.53       5.69
H      -6.59       2.15       3.50
H      -5.16       2.85       4.32
O      -5.12       6.83      12.60
H      -6.18       3.85       3.26
O      -6.83       8.83       1.73
O      -7.79       6.78       1.51
C      -6.40       5.35       8.22
C      -6.20       3.04       4.00
C      -6.67       5.79       5.42
C      -6.79       4.45       5.97
C      -6.70       4.28       7.33
C      -6.98       6.09       4.08
C      -6.78       7.37       3.57
C      -5.55       7.45       9.91
C      -5.75       7.73       8.55
C      -6.15       6.66       7.68
C      -5.55       9.05       7.99
C      -5.73       9.24       6.64
C      -6.10       8.18       5.76
C      -5.65       5.91      11.88
C      -6.30       6.86       6.29
C      -6.31       8.40       4.39
C      -5.86       6.19      10.43
