14

H       1.39       7.77       8.22
H      -1.15       7.76       8.19
N      -1.28       5.50       5.98
N       1.57       5.52       6.00
H       1.43       4.53       4.17
H       1.40       6.21       9.09
H      -1.16       6.21       9.07
H      -1.10       4.51       4.16
C      -0.56       6.04       6.95
C      -0.54       4.95       4.98
C       0.85       4.96       4.99
C       0.84       6.05       6.96
C       0.92       6.78       8.28
C      -0.67       6.78       8.27
