22

H       1.83       2.21       6.18
H      -1.21       5.26       5.89
H      -1.43       5.26       8.36
H       2.55       1.35       8.16
C      -0.92       4.27      12.55
C      -0.41       3.95      11.25
C       1.04       2.91       8.05
C       1.13       2.89       6.66
C      -0.58       4.60       6.49
C      -0.70       4.61       7.88
C       0.10       3.77       8.68
C       0.34       3.74       5.86
C       0.49       3.69       4.46
C      -0.09       3.81      10.08
C       0.69       3.58       3.26
C       1.10       3.21       1.93
C       1.95       2.05       8.81
O       0.81       2.04       1.56
O       1.79       4.07       1.26
O      -0.63       5.40      13.02
O      -1.67       3.38      13.11
O       2.10       2.06      10.02
