42

H       7.22      14.61       9.76
H       5.32      13.46      13.48
N       6.93      12.67      12.33
N       7.52      13.03      11.15
H      -0.33      19.80       5.92
H      -0.08      15.54       6.72
N      -1.07      16.72       5.25
N      -1.16      18.07       5.00
H       2.01      22.96      13.57
H       0.89      19.64      16.12
N       1.11      21.73      16.43
N       1.45      22.79      15.61
H       4.92      16.41      13.35
N       4.97      15.54      11.38
H       4.53      15.15       9.32
N       1.77      20.01      13.34
H       0.51      20.80      11.78
H       3.21      18.82      14.37
H      -0.06      19.56       8.91
N       0.99      17.98       7.91
H       2.34      16.36       7.53
C       6.91      14.14      10.68
C       5.89      14.50      11.57
C       5.94      13.56      12.60
C      -0.42      18.72       5.93
C       0.16      17.78       6.80
C      -0.28      16.53       6.33
C       1.70      22.31      14.37
C       1.51      20.92      14.38
C       1.14      20.60      15.69
C       3.55      17.24      11.74
C       2.75      18.34      12.22
C       1.84      19.03      11.33
C       1.65      18.53       9.98
C       2.45      17.43       9.51
C       3.44      16.82      10.37
C       4.50      16.42      12.34
C       4.33      15.78      10.18
C       2.01      17.11       8.24
C       0.76      18.85       8.96
C       1.26      20.06      12.05
C       2.67      18.98      13.45
