20

H      12.28       1.47       4.97
H      14.40       2.97       1.54
H      14.00       2.51       6.46
H      17.92       3.71       3.96
S      16.52       4.41       2.59
O      15.73       4.03       7.03
C      16.15       3.87       5.85
O      17.35       4.11       5.47
C      12.22       1.53       2.25
O      11.25       0.91       2.80
O      12.41       1.68       1.00
O      17.86       3.63       2.96
O      16.34       4.24       1.18
O      16.53       5.73       3.17
C      15.17       3.31       4.85
C      13.23       2.15       3.16
C      15.27       3.44       3.45
C      13.12       2.02       4.55
C      14.31       2.86       2.62
C      14.08       2.60       5.38
