36

H       8.13       6.74       4.30
H       4.17       8.39       4.17
H       6.14       7.89      -0.46
H       8.45       7.30       1.89
C       6.00       7.33       5.87
C       8.36       8.72      -6.04
C       6.14       7.53       4.39
C       7.33       7.22       3.74
C       7.51       7.54       2.40
C       6.51       8.20       1.68
C       5.30       8.46       2.34
C       5.10       8.14       3.68
C       7.01       9.85      -2.66
C       7.17       9.71      -4.03
C       9.20       8.49      -3.67
C       9.01       8.61      -2.29
C       7.91       9.29      -1.75
C       6.72       8.49       0.25
C       7.66       9.29      -0.30
C       8.27       9.02      -4.56
N       6.17      10.32      -4.92
N       8.48      10.21       0.50
N       4.21       9.13       1.62
O       4.85       7.54       6.38
O       7.06       7.01       6.50
O       7.27       8.34      -6.56
O       9.49       8.85      -6.60
O       4.99       9.97      -4.78
O       6.58      11.16      -5.73
O       9.41      10.77      -0.10
O       8.19      10.38       1.69
O       4.41       9.42       0.42
O       3.15       9.35       2.22
F       9.90       8.02      -1.46
F      10.25       7.77      -4.10
F       5.97      10.56      -2.17
