16

O       8.83      21.03      18.02
H      11.21      21.58      17.37
H      10.72      18.12      19.87
O       8.73      19.34      19.54
C       9.36      20.11      18.74
C      10.83      19.88      18.64
C      11.66      20.72      17.88
C      13.02      20.45      17.79
C      11.38      18.77      19.30
C      12.74      18.51      19.21
H      13.68      21.10      17.20
C      13.57      19.35      18.46
C      15.04      19.07      18.40
O      15.48      18.22      19.24
O      15.72      19.70      17.53
H      13.18      17.65      19.72
