27

N       3.68      14.44       4.34
N       2.52      15.04       4.69
O      -1.29       7.60       3.32
O      -0.22       6.83       5.18
H       2.57      16.09       4.80
H      -1.06       9.91       2.88
H       0.01      12.17       3.02
H       2.70      10.68       6.04
H       1.56       8.46       5.95
H       4.03      11.19       3.57
H       5.17      11.91       4.71
H       5.11      12.51       3.04
H      -0.44      13.63       5.49
H      -0.38      15.03       4.39
H       0.14      15.21       6.08
C       1.42      11.58       4.55
C      -0.47       7.71       4.32
C       0.19       9.05       4.40
C      -0.25      10.10       3.58
C       0.35      11.35       3.66
C       1.86      10.52       5.36
C       1.24       9.27       5.30
C       2.09      12.88       4.57
C       3.45      13.12       4.26
C       1.53      14.14       4.84
C       4.49      12.14       3.87
C       0.14      14.53       5.22
