24

H      10.73       8.37      22.38
C      12.43       8.80      20.79
H      12.16       9.77      20.36
C      11.63       8.02      21.88
C      13.79       8.24      26.60
H      11.02       5.96      20.85
C      13.36       7.97      25.25
H      13.40       5.40      22.22
O      13.47       9.36      27.11
O      14.52       7.35      27.17
H      14.85       6.81      20.22
O      10.71       7.68      15.57
O      11.92       5.76      15.51
H      14.57       9.21      21.74
C      12.08       7.15      17.37
C      13.77       8.48      21.52
C      12.98       7.70      22.66
C      13.93       7.16      20.71
C      12.59       7.48      19.93
C      13.13       6.38      21.80
C      11.80       6.69      21.07
C      13.18       7.84      24.05
C      12.34       7.31      18.55
C      11.56       6.86      16.06
