47

C       3.98       8.30       3.88
H       0.28      11.96       7.03
C       4.86       7.11       3.64
H       2.51      10.34       3.75
C       5.67       6.60       4.67
H       2.95       8.65       7.72
C       6.49       5.50       4.42
H       0.64      13.74       5.74
C       6.50       4.89       3.16
H      -0.85      12.83       5.35
C       5.69       5.41       2.13
H       1.24      15.68       4.47
C       4.89       6.52       2.38
H       0.71      17.28       2.64
C       7.32       3.70       2.88
H      -2.26      14.58       1.12
O       0.12      10.91       9.31
H      -1.71      12.94       2.93
O       1.93       9.67       9.79
O       3.69       8.39       5.28
H       4.48       9.23       3.55
O       0.89      12.16       4.40
H       3.04       8.19       3.31
O      -2.36      16.82       0.21
H       5.65       7.07       5.65
O      -0.52      18.09       0.58
H       7.13       5.10       5.20
H       5.70       4.92       1.16
O       7.25       3.11       1.78
H       4.24       6.91       1.58
O       8.10       3.31       3.88
H       8.65       2.48       3.60
C       1.20      10.29       8.97
C       1.57      10.30       7.51
C       0.99      11.25       6.65
C       1.36      11.25       5.31
C       2.26      10.30       4.80
C       2.81       9.36       5.68
C       2.49       9.37       7.04
C       0.09      13.25       4.93
C      -0.20      14.21       3.82
C       0.47      15.43       3.74
C       0.18      16.34       2.72
C      -0.81      16.02       1.78
C      -1.47      14.79       1.84
C      -1.16      13.88       2.85
C      -1.26      17.04       0.78
