10

O       6.29       3.48       8.47
O       7.53      -1.41       8.38
O       9.76      -1.34       8.83
O       8.51       3.55       8.92
C       7.42       2.95       8.67
F       6.26       0.89       8.47
C       8.62      -0.81       8.63
F       9.79       1.25       8.83
C       7.47       1.46       8.62
C       8.58       0.68       8.68
