14

C      12.73      -8.55      12.34
O      15.77      -5.63       9.34
C      11.66      -9.20      13.13
C      14.82      -8.65      11.00
C      14.79      -7.42      10.46
C      13.77      -9.23      11.81
O      16.88      -7.62       9.37
H      15.70      -9.27      10.80
H      13.94      -6.75      10.59
H      12.61      -7.48      12.21
H      13.83     -10.30      12.03
O      10.71      -8.43      13.50
C      15.90      -6.86       9.66
O      11.77     -10.45      13.39
