28

H       6.27       4.55      10.44
H       8.27       8.31      10.87
O       8.00      10.36      18.06
O       8.42       8.16      17.73
O       8.10       7.62       8.65
O       7.42       5.49       8.36
H       6.46       7.50      16.53
H       9.24      11.36      16.00
H       9.57      11.59      13.53
H       8.74       9.84      12.01
H       5.57       5.76      15.03
H       5.60       4.62      12.85
C       8.17       9.34      17.33
C       6.23       6.54      14.64
C       6.72       7.51      15.47
C       7.69       7.51      11.34
C       6.56       5.39      11.08
C       8.15       9.53      15.84
C       7.31       6.45      10.53
C       7.64       6.51       9.08
C       8.83      10.62      15.32
C       6.19       5.43      12.41
C       9.02      10.74      13.93
C       8.55       9.75      13.08
C       7.83       8.64      13.57
C       7.57       8.55      14.98
C       7.37       7.56      12.71
C       6.58       6.50      13.25
