24

H      11.02       8.90       6.09
H      11.69       8.06       3.86
O      15.31      10.74       1.44
O       9.72      12.97       5.45
O      10.92      11.89       7.05
H      13.50      12.57       2.02
O      12.98       8.98       6.77
H      11.58       9.14       8.33
H      12.63      10.57       8.09
H      13.32       9.06       8.77
C      14.31      10.01       1.81
C      12.88       9.85       3.91
C      13.42      10.59       2.86
C      13.08      11.95       2.82
C      12.16      12.51       3.72
C      11.69      11.78       4.84
C      12.17      10.47       4.94
C      12.03       9.17       5.75
C      12.53       8.47       4.42
C      10.70      12.27       5.84
C      12.60       9.48       8.05
I      13.86       6.79       4.60
I      11.57      14.49       3.30
O      14.02       8.85       1.38
