34

O      15.15       6.26      14.84
O       3.92       4.95      16.70
H       6.15       4.12      17.32
H       6.15       7.10      14.22
H      12.93       6.57      13.85
H      12.92       4.65      17.69
O      15.15       4.98      16.71
H       9.16       2.90      16.95
H       9.17       8.26      14.53
H       8.28       7.67      13.12
H       9.91       5.82      12.82
H      10.80       7.35      12.89
O       3.92       6.28      14.86
H       8.28       3.48      18.37
H       9.91       5.33      18.69
H      10.79       3.80      18.60
C      14.56       5.62      15.78
C       4.51       5.62      15.78
C       8.89       3.81      17.52
C       8.90       7.35      13.97
C      10.18       6.66      13.49
C      10.18       4.49      18.01
C       6.71       4.76      16.64
C       8.10       4.73      16.63
C       6.71       6.44      14.89
C       8.10       6.44      14.87
C      12.37       6.15      14.68
C      10.98       6.13      14.65
C      12.36       5.06      16.85
C      10.97       5.04      16.85
C       6.00       5.61      15.77
C       8.80       5.58      15.75
C      13.07       5.61      15.77
C      10.27       5.58      15.75
