22

N       1.37       5.62      12.94
N      -1.40       5.73      12.99
H       1.01       8.29      11.10
H       2.50       7.37      11.38
H       1.38       6.88      10.09
H      -0.85       4.34      15.95
H      -2.40       4.90      15.26
H      -1.73       3.33      14.78
H      -0.88       7.18      10.05
H      -2.44       6.80      10.83
H      -1.54       8.24      11.32
H       0.75       3.03      14.89
H       2.33       3.60      14.30
H       1.58       4.37      15.71
C       0.70       6.41      12.07
C      -0.73       5.02      13.92
C      -0.71       6.41      12.05
C       0.68       4.89      13.83
C       1.45       7.28      11.11
C      -1.47       4.37      15.04
C      -1.44       7.19      11.00
C       1.38       3.92      14.73
