20

H       4.94      10.66      21.88
H       9.10      12.44      23.96
H       4.80      12.39      23.67
H       9.24      10.70      22.17
C       7.23       7.78      18.94
C       6.81      15.32      26.89
C       5.77      12.02      23.33
C       8.27      11.08      22.50
C       6.94      12.53      23.93
C       7.09      10.57      21.90
C       8.19      12.04      23.49
C       5.84      11.05      22.34
C       6.87      13.51      24.95
C       7.16       9.59      20.88
C       7.20       8.75      20.00
C       6.84      14.34      25.83
O       6.11       7.52      18.38
O       7.93      15.58      27.45
O       8.36       7.28      18.65
O       5.68      15.82      27.18
