20

C       3.35       0.89      26.75
H       2.21      -0.02      22.45
H       4.47       3.65      22.83
O       2.19       0.74      27.23
H       4.26       4.01      20.37
O       4.46       0.57      27.33
O       4.23       3.54      15.73
O       1.98       3.30      15.43
F       1.89       0.19      19.89
C       3.07       3.19      16.10
C       2.98       2.69      17.44
C       3.83       3.13      20.84
C       3.95       2.93      22.20
C       2.68       0.85      22.01
C       2.57       1.08      20.65
C       3.13       2.21      20.02
C       3.38       1.79      22.81
C       3.45       1.58      24.20
C       3.01       2.43      18.63
C       3.45       1.39      25.41
