14

O       1.02       6.53       5.20
H      -1.98       3.12       3.81
C      -3.08       4.80       2.96
O       0.10       8.46       4.62
C      -2.01       4.20       3.66
H      -0.16       4.57       4.69
C       0.08       7.18       4.61
O      -2.19       8.31       3.01
C      -0.99       5.00       4.14
C      -1.00       6.40       3.97
C      -3.10       6.17       2.76
H      -3.92       6.64       2.23
C      -2.07       7.03       3.25
H      -3.89       4.19       2.58
