16

O      14.36      15.06      10.94
F      16.74      16.65      14.94
C      18.16      17.44      13.17
C      16.38      16.22      11.37
C      17.03      16.74      13.62
C      17.50      16.91      10.89
C      16.14      16.14      12.74
C      18.37      17.51      11.78
C      19.16      18.07      14.09
O      19.11      17.77      15.32
H      17.67      16.97       9.81
C      15.41      15.57      10.43
H      15.26      15.62      13.13
H      19.24      18.07      11.43
O      15.72      15.58       9.19
O      19.99      18.87      13.54
