38

C       8.10       7.91       7.65
C       5.68       8.30       8.14
C       5.54       8.55       6.62
C       5.72       7.92       3.27
C       6.86       7.34       8.39
C       7.97       7.77       6.12
C       6.43       7.56       5.81
C       6.05       6.14       6.32
C       6.50       5.96       7.78
C       6.10       7.73       4.41
C       7.14       7.23       9.81
C       7.40       7.11      10.99
C       5.18       8.25       1.98
H       8.24       8.96       7.92
H       4.76       7.86       8.55
H       5.85       9.25       8.67
H       5.80       9.59       6.36
H       4.51       8.42       6.29
H       7.39       5.32       7.84
C       8.05      10.14       5.40
C       8.80       6.31       4.37
H       5.72       5.50       8.39
H       9.01       7.37       7.95
H       6.49       5.37       5.68
H       4.96       6.05       6.23
O       5.52       9.36       1.48
O       4.35       7.40       1.48
O       7.55       5.71      12.82
O       8.66       7.70      12.84
H       7.83      10.53       6.41
H       7.13      10.18       4.79
O       8.61       8.83       5.43
O       8.73       6.62       5.78
H       8.81      10.78       4.94
H       9.05       7.20       3.78
H       7.86       5.87       4.01
H       9.60       5.56       4.27
C       7.88       6.82      12.31
