32

N       1.19      -2.09       7.57
H       0.23      -3.86       8.19
H      -5.01      -3.21       2.03
H      -2.58       0.67       7.42
H       0.53      -1.99       4.87
H      -0.24      -3.30       3.04
H      -2.37      -1.09       5.32
H      -3.05      -2.18       3.60
H      -0.71      -5.27       3.08
H       0.75      -6.15       1.43
H      -0.03      -4.67       0.77
H      -0.62      -6.28       0.31
H       1.89      -1.78       6.91
H       1.70      -4.09       7.22
H       0.16      -3.62       6.42
C      -4.24      -3.97       1.96
C      -1.66       0.14       7.66
C      -2.40      -5.20       2.05
C       0.14      -1.16       7.71
C      -2.89      -3.90       2.36
C      -0.92      -0.74       6.85
C      -0.54      -1.92       4.67
C      -1.01      -2.71       3.54
C      -1.31      -1.22       5.55
C      -2.31      -2.85       3.16
C      -0.21      -5.70       1.14
C       0.79      -3.48       7.32
N      -4.52      -5.19       1.46
N      -1.11       0.25       8.88
N      -3.39      -5.95       1.53
N       0.00      -0.55       8.91
N      -1.13      -5.75       2.28
