16

C      10.02      16.66      20.02
C       9.24      15.39      20.00
C       8.95      14.71      21.19
C       8.31      13.48      21.15
C       7.95      12.91      19.92
C       8.20      13.61      18.73
C       8.84      14.84      18.77
C       7.30      11.56      19.89
H       9.26      15.15      22.14
H       8.09      12.93      22.07
H       7.89      13.16      17.78
H       9.07      15.39      17.85
O      10.35      17.15      18.90
O      10.32      17.14      21.17
O       7.05      11.03      21.01
O       7.07      11.05      18.74
