24

O      10.67      16.21       3.24
O      10.29      14.21       2.24
O      11.33      15.00       5.56
O      12.98      13.58       6.45
O      15.14      13.10       4.42
O      13.30      14.23       3.50
O      14.51      10.64       6.90
O      15.86      12.48       6.85
H      10.28      13.45       4.67
H      11.87      14.90       7.51
H      10.96      13.45       6.88
H      12.25      11.80       5.62
H      14.21      11.23       4.44
H      15.19      14.31       2.80
H      14.33      12.72       2.55
H      12.06      12.55       3.36
C      10.66      14.94       3.22
C      11.10      14.16       4.44
C      11.73      14.22       6.67
C      12.90      12.66       5.35
C      14.32      12.13       5.07
C      14.51      13.57       3.24
C      12.34      13.33       4.09
C      14.97      11.71       6.39
