22

O       2.73      10.25       4.52
O       2.89       9.82       2.30
O      12.02      10.40       1.69
O      11.88       9.68       3.84
C       3.39      10.04       3.45
C       4.88      10.05       3.54
C       5.52      10.01       4.81
C       6.89       9.96       4.89
C       5.64      10.08       2.38
C       7.69       9.97       3.72
C       9.10       9.91       3.77
H       4.91      10.01       5.71
H       7.38       9.93       5.87
H       5.13      10.11       1.42
H       9.60       9.81       4.73
C       9.87      10.00       2.62
C      11.36      10.02       2.72
C       9.23      10.11       1.35
C       7.86      10.12       1.27
C       7.05      10.06       2.43
H       9.85      10.18       0.46
H       7.37      10.18       0.29
