16

C      15.39      15.73      10.37
Cl      16.70      16.53      15.27
O      20.25      18.66      13.44
O      15.62      15.88       9.13
C      18.21      17.49      13.14
H      17.65      17.14       9.77
H      19.26      18.14      11.40
C      16.37      16.35      11.32
C      17.49      17.05      10.84
C      16.17      16.22      12.69
C      18.39      17.60      11.75
O      14.40      15.11      10.90
H      15.31      15.68      13.06
C      17.07      16.78      13.60
C      19.23      18.14      14.02
O      19.02      18.13      15.27
