10

C      -1.53       8.05       7.67
O      -2.76       6.07       8.11
O      -0.60       5.91       7.45
H      -0.55       8.45       7.41
H      -3.54       8.46       8.17
O      -3.44      11.00       8.26
O      -1.37      10.84       7.33
C      -1.64       6.57       7.76
C      -2.56       8.86       7.90
C      -2.44      10.34       7.82
