24

O      13.27      -4.69       9.00
O      14.63      -2.87       8.95
O      10.61      -0.94      14.35
O       9.24       0.05      12.83
H      12.21      -4.47      11.33
H      13.52      -1.06       8.16
H      11.57       2.51       9.53
O      13.90       0.89       6.85
O      12.78       2.68       7.47
H      10.62       1.27      11.47
H      10.89      -3.25      13.06
C      13.57      -3.47       9.30
C      12.88      -0.58       8.90
C      12.58       0.76       8.77
C      11.77       1.45       9.69
C      11.26       0.76      10.76
C      11.52      -0.63      10.94
C      12.36      -1.32      10.00
C      12.61      -2.72      10.17
C      12.03      -3.40      11.23
C      11.27      -2.71      12.19
C      11.02      -1.35      12.07
C      10.24      -0.70      13.16
N      13.13       1.49       7.61
