41

H       3.37      14.77       4.83
H       3.04      15.10       2.58
H       3.41      13.47      -0.41
H       1.97      15.76       0.70
H       1.43      14.21       1.42
H       0.13      13.98      -0.32
H       2.94      15.65      -1.35
H       1.26      15.18      -4.64
H       5.98      16.73      -4.45
H       4.69      16.49      -2.35
H       6.62      15.85       2.21
H       8.09      16.14       4.22
C       5.22      15.19       5.82
C       4.41      15.07       4.68
C       4.91      15.26       3.39
C       4.34      14.35       1.16
C       1.90      14.66       0.53
C       1.13      14.84      -1.87
C       2.89      15.81      -3.37
C       2.29      15.53      -4.59
C       3.03      15.64      -5.79
C       4.39      16.07      -5.73
C       4.94      16.41      -4.48
C       4.22      16.29      -3.31
C       5.28      16.12      -6.89
C       6.25      15.66       3.21
C       7.05      15.80       4.32
C       6.59      15.56       5.64
C       7.52      15.73       6.76
N       4.02      15.09       2.31
N       3.27      14.16       0.33
N       1.06      14.32      -0.58
N       2.28      15.57      -2.12
O       6.46      16.59      -6.80
O       4.85      15.63      -8.01
O       2.42      15.28      -6.94
O       8.71      16.16       6.57
O       7.11      15.43       7.95
O       4.66      14.93       7.01
O       5.47      13.92       0.93
O       0.24      14.62      -2.69
