16

C       8.49      12.79       4.47
C       8.86      10.19       3.59
C       7.57      12.21       3.60
C       9.77      10.77       4.47
C       6.73      10.26       2.20
O      11.75      12.17       5.96
F       8.25      14.06       4.83
F       9.12       8.94       3.18
F       6.51      12.95       3.25
F      10.80      10.00       4.87
O      10.20      13.73       6.54
C      10.60      12.71       5.89
O       6.01      11.05       1.52
O       6.69       8.99       2.18
C       9.62      12.09       4.94
C       7.72      10.89       3.13
