28

C      17.86      18.43      12.97
C      17.89      17.22      12.09
C      19.14      16.64      11.82
C      20.37      17.26      12.43
C      19.18      15.50      10.99
C      20.45      14.78      10.62
C      17.96      15.02      10.49
C      17.99      13.79       9.63
C      16.71      15.60      10.75
C      15.48      14.97      10.15
C      16.67      16.74      11.58
C      15.40      17.46      11.96
O      17.65      18.23      14.21
O      18.06      19.56      12.41
O      18.07      13.95       8.37
O      17.92      12.67      10.25
H      20.50      18.30      12.10
H      21.29      16.72      12.19
H      20.28      17.29      13.53
H      20.48      14.57       9.54
H      21.35      15.35      10.86
H      20.51      13.81      11.14
H      15.31      13.96      10.58
H      14.57      15.55      10.33
H      15.59      14.84       9.07
H      15.19      17.35      13.03
H      14.53      17.10      11.41
H      15.49      18.54      11.76
