26

C      -1.72      11.05      11.29
H      -2.01      14.04      12.65
C      -2.47      11.26      13.68
C      -2.83      10.72      14.72
C      -3.19      10.10      15.86
C      -3.47       9.51      16.90
C      -3.69       8.84      18.04
C      -3.78       8.20      19.09
H      -3.25       5.36      19.57
H      -3.81       8.90      22.00
C      -2.05      11.79      12.45
H      -2.88       9.29       9.38
H      -1.14       9.23       9.09
H      -1.92       7.87       9.86
H      -0.71       9.21      11.59
H      -2.43       9.16      11.90
C      -1.68       9.55      11.19
C      -1.92       8.96       9.81
C      -1.88      13.13      12.07
N      -1.50      13.19      10.78
N      -1.40      11.90      10.30
C      -3.34       6.09      20.37
C      -3.62       7.91      21.61
C      -3.67       7.46      20.27
N      -3.10       5.77      21.65
N      -3.27       6.89      22.41
