37

H      -5.33       8.33       6.90
C      -5.49       4.10      10.14
H      -6.98       7.02       5.00
H      -5.15       4.86       4.93
H      -6.62       3.58       7.00
N     -13.49       4.77       7.04
N     -13.50       5.88       7.84
H      -0.22       3.51       6.56
N      -4.72       4.89       9.19
N       1.11       4.28       8.02
N       1.16       5.43       8.75
H     -11.96       3.68       6.05
H     -12.01       7.20       8.57
H      -3.84       4.45       8.92
H      -4.84       3.78      10.96
H      -5.96       3.20       9.69
H      -6.30       4.71      10.56
H      -0.05       7.16       8.89
H      -6.78       7.07       9.00
C       0.11       6.19       8.43
C      -0.68       5.53       7.47
C      -5.41       5.38       8.06
C      -6.41       6.58       8.09
C      -9.96       5.60       7.17
C      -1.99       5.86       7.06
C      -6.32       4.63       6.98
C      -7.33       5.85       7.03
C      -5.53       5.34       5.84
C      -4.60       6.07       6.88
C      -6.52       6.55       5.87
C      -5.62       7.28       6.93
C      -8.74       5.72       7.11
C      -3.18       6.06       6.89
C     -12.21       4.52       6.69
C     -11.36       5.48       7.27
C     -12.24       6.32       7.98
C       0.02       4.32       7.23
