28

H       6.14      21.91       9.42
H       6.08      20.18       7.61
H      10.34      21.18       9.99
H       6.03      15.70       2.40
H      10.23      14.97       2.98
H      10.29      16.69       4.79
C       8.08      14.10       1.60
C       8.29      22.78      10.79
C       8.24      21.67       9.79
C       7.04      21.37       9.14
C       7.01      20.41       8.13
C       8.19      19.73       7.75
C       9.36      20.02       8.47
C       9.41      20.97       9.47
C       8.19      18.81       6.68
C       8.18      18.06       5.72
C       8.18      17.15       4.64
C       7.01      16.86       3.92
C       6.96      15.91       2.92
C       8.13      15.21       2.60
C       9.33      15.51       3.26
C       9.36      16.46       4.26
O       6.94      13.80       1.12
O       9.18      13.51       1.34
O       7.19      23.36      11.06
O       9.43      23.08      11.28
F      10.50      19.34       8.15
F       5.87      17.54       4.24
