26

H       3.22       4.57      17.23
H       4.44       0.50      21.45
H       3.84       0.17      23.84
H       2.63       4.22      19.61
H       1.21       3.33      21.04
H       0.68       3.06      23.45
O       5.16       1.96      15.01
H       3.88       0.10      19.31
O       4.09       3.96      15.04
H       4.54       0.49      16.94
O       2.24       0.31      25.78
O       0.97       2.19      25.71
C       3.91       2.55      16.94
C       3.35       3.59      17.69
C       3.01       3.39      19.02
C       3.21       2.14      19.64
C       4.40       2.83      15.56
C       3.75       1.09      18.87
C       4.10       1.30      17.54
C       3.60       1.05      21.88
C       3.28       0.88      23.22
C       1.51       2.52      23.01
C       1.82       2.67      21.66
C       2.87       1.94      21.07
C       2.24       1.62      23.80
C       1.81       1.37      25.20
