26

O      11.38       7.27      15.99
O      10.15       8.37      17.55
C      13.23       4.76      22.80
C      13.52       4.49      21.45
C      14.44       3.47      21.17
C      15.06       2.75      22.18
C      14.76       3.03      23.53
C      13.84       4.04      23.83
C      12.88       5.26      20.37
C      11.62       5.86      20.55
C      11.03       6.60      19.53
C      11.66       6.72      18.28
C      12.90       6.10      18.08
C      13.51       5.40      19.11
H      14.67       3.21      20.13
H      15.77       1.96      21.96
H      13.61       4.25      24.87
H      12.54       5.56      23.06
H      11.09       5.73      21.49
H      10.06       7.08      19.67
H      13.38       6.19      17.11
H      14.50       4.98      18.96
O      15.10       2.52      25.82
O      16.25       1.35      24.25
C      15.42       2.25      24.61
C      11.02       7.50      17.19
