22

H       2.48      11.05      12.29
H       3.25       8.71      11.95
H      -0.66       9.71      14.90
H      -0.18       4.92      15.01
H      -0.95       7.27      15.34
H       2.96       6.27      12.40
C       0.38      11.92      13.77
C       0.85      10.51      13.61
C       1.97      10.22      12.78
C       2.39       8.92      12.59
C       0.19       9.47      14.25
C       1.71       7.84      13.22
C       1.92       4.05      13.52
C       1.45       5.46      13.68
C       0.33       5.75      14.52
C      -0.09       7.05      14.70
C       2.11       6.50      13.04
C       0.59       8.13      14.07
O      -0.64      12.09      14.54
O       0.99      12.84      13.15
O       2.94       3.88      12.76
O       1.31       3.13      14.14
