25

H      11.80      12.59       1.16
H      13.50      12.96       1.54
H      13.10      11.49       0.65
H      11.34      14.03       4.55
H      12.24      14.06       3.02
H      10.56      13.52       3.06
H      14.53       7.93       4.04
H      13.49       7.79       5.48
H      12.90       7.29       3.88
H      12.24       9.63       6.21
C      13.84       9.44       1.85
C      11.03      11.98       6.17
C      12.62      11.42       2.77
C      11.97      12.08       3.83
C      11.83      11.40       5.06
C      12.35      10.11       5.23
C      12.97       9.43       4.19
C      13.09      10.10       2.95
C      12.76      12.14       1.46
C      11.51      13.50       3.61
C      13.50       8.04       4.41
O      10.03      12.70       5.87
O      14.82      10.09       1.36
O      13.49       8.26       1.45
O      11.36      11.69       7.39
