12

O       6.31      20.49      16.52
C       7.45      19.98      16.27
C       7.75      12.87      10.37
C       7.75      13.97      11.30
C       7.71      14.92      12.07
C       7.66      15.96      12.91
C       7.60      16.92      13.69
C       7.53      17.95      14.54
C       7.48      18.89      15.33
O       6.62      12.34      10.13
O       8.88      12.55       9.87
O       8.58      20.32      16.76
