29

C      20.20      12.75       4.38
C      19.31      12.41       5.55
C      22.74      13.27       2.81
C      23.80      12.39       2.17
O      23.72      17.16       2.10
O      25.01      15.30       2.36
O      19.43      11.24       6.04
O      18.54      13.33       5.98
O      21.93      13.88       2.13
H      22.38      16.13       3.95
H      23.84      16.70       4.72
H      24.72      14.25       4.55
H      23.59      14.67       5.83
H      24.23      11.85       4.76
H      23.20      12.28       6.14
H      22.56      11.26       4.84
H      21.02      14.75       4.47
H      21.34      13.81       5.92
H      20.64      11.82       4.00
H      19.60      13.20       3.58
H      23.83      12.59       1.09
H      24.79      12.56       2.61
H      23.55      11.33       2.34
C      24.11      16.13       2.73
C      23.44      15.90       4.07
C      23.68      14.55       4.74
C      22.72      13.39       4.34
C      23.20      12.12       5.05
C      21.30      13.75       4.82
