46

C      21.97       0.88       3.89
C      22.41       1.51       2.78
C      23.34       2.63       2.76
C      24.38       2.76       3.62
H      24.15       9.39       0.10
H      27.36       7.42      -2.03
C      28.11       3.37       6.93
C      26.78       3.62       7.09
C      25.81       3.64       6.02
C      26.09       4.04       4.76
H      28.35       4.77       9.61
H      30.73       2.00       7.29
H      20.04      -0.17       5.91
H      21.26      -1.31       1.92
H      25.11       8.11       2.11
H      25.48       6.46       3.88
H      26.38       6.02       0.25
H      25.03       4.39       1.63
N      26.20       9.16      -2.38
N      25.19       9.79      -1.70
H      22.00       1.21       1.81
H      23.16       3.40       2.01
H      22.27       1.27       4.87
H      24.62       1.99       4.35
N      30.95       2.89       9.19
N      30.19       3.77       9.93
N      19.85      -2.05       3.30
N      19.46      -1.70       4.57
N      25.27       3.84       3.65
H      26.40       3.78       8.11
H      24.79       3.31       6.26
H      28.46       3.07       5.94
H      27.03       4.56       4.52
C      24.94       9.08      -0.58
C      25.80       7.97      -0.50
C      26.56       8.07      -1.68
C      29.08       4.07       9.22
C      29.10       3.39       7.99
C      30.31       2.67       8.03
C      20.19      -0.63       4.94
C      21.06      -0.25       3.90
C      20.80      -1.19       2.89
C      25.89       6.96       0.53
C      25.47       7.12       1.81
C      25.43       6.12       2.84
C      25.25       4.79       2.63
