10

H       8.22       3.94       6.90
H      10.79       7.00       4.11
H       8.22       7.01       4.11
H      10.80       3.94       6.89
C       8.81       4.61       6.28
C      10.20       6.33       4.72
C       8.81       6.33       4.73
C      10.21       4.61       6.28
N      10.88       5.47       5.50
N       8.14       5.47       5.51
