18

O      16.42       9.56      12.65
O      15.15       9.15      14.49
O      10.36       6.24      10.41
O      11.71       6.42       8.59
C      11.47       6.56       9.85
H      12.79       8.55      13.82
H      11.13       7.47      12.29
H      15.31       6.73       8.90
H      13.66       6.35       8.45
H      15.83       8.05      10.82
C      15.40       9.07      13.25
C      13.08       8.19      12.84
C      14.40       8.36      12.39
C      12.53       7.14      10.70
N      14.32       6.83       9.05
C      13.88       7.27      10.27
C      14.79       7.90      11.14
C      12.17       7.59      11.99
