14

O       5.53      12.97       1.62
O       3.27      12.82       1.36
C       5.29      11.02       3.70
C       4.25      11.59       3.07
C       5.17      10.07       4.80
C       4.04       9.44       5.17
H       6.30      11.30       3.38
H       3.21      11.37       3.35
H       6.08       9.83       5.36
H       3.09       9.58       4.65
C       4.37      12.53       1.93
O       5.07       8.31       6.97
C       3.99       8.52       6.32
O       2.84       8.02       6.60
