30

C      13.62       6.44      17.92
C      13.48       4.79      14.47
H      16.24       6.87       9.71
H      12.93       4.22      16.49
Br      12.65       1.79      11.62
Br      12.40       2.15      14.87
H      14.13       3.12       9.87
H      14.60       8.17      16.14
Cl      17.18       7.24      13.02
Cl      13.18       8.67      12.47
C      13.06       3.57      13.81
C      13.21       3.40      12.45
O      16.65       5.56       7.91
C      14.28       5.60      12.25
O      14.37       7.34      18.47
C      15.95       4.61       8.40
C      14.03       5.82      13.67
O      15.93       3.42       7.94
O      12.67       5.84      18.50
C      15.60       7.59      12.37
C      14.64       8.06      13.23
C      15.56       6.20      10.23
C      14.31       7.23      15.67
C      13.82       6.17      16.46
C      15.21       4.96       9.65
C      15.10       6.52      11.48
C      14.36       7.08      14.30
C      14.37       4.09      10.32
C      13.37       5.00      15.87
C      13.90       4.38      11.63
