34

N       2.85       1.34       6.89
N       3.33       6.91      12.92
H       3.79       6.20      13.50
H       3.71       6.01       9.27
N       4.17       5.30       9.85
O       2.87       7.50      10.74
H       6.40      10.22      14.97
H       1.10       1.99       7.80
O       4.63       4.71      12.02
H       5.29       8.51      13.54
H       2.21       3.70       9.22
H       1.55       9.65      15.40
H       5.96       2.56       7.37
H       2.81      11.35      16.72
H       4.69       0.86       6.05
H       1.78       7.49      14.19
H       5.72       4.72       8.58
H       1.99       8.45      12.73
H       5.52       3.76      10.04
C       5.32      10.08      15.01
C       2.18       2.13       7.76
C       4.70       9.13      14.22
C       2.81       3.08       8.55
C       3.31       8.96      14.33
C       4.19       3.25       8.43
C       2.62       9.77      15.24
C       4.88       2.44       7.52
C       3.31      10.71      15.99
C       4.19       1.50       6.78
C       2.54       7.95      13.53
C       4.97       4.26       9.23
C       3.38       6.74      11.59
C       4.13       5.47      11.18
N       4.65      10.87      15.87
