53

N       2.43      20.46      16.95
N       3.43      21.38      17.14
N       0.09      21.75      10.95
N      -0.23      20.97       9.96
N      -0.77      22.82      10.90
N      -2.85      23.51      12.48
N      -3.64      23.96      13.40
H      -3.54      22.10       7.33
H      -0.54      19.01       7.82
N      -1.78      24.37      12.42
N      -0.12      25.09      10.85
N      -0.94      26.15      10.56
N      -0.40      26.78       9.56
N       0.48      23.72      12.72
H      -5.49      24.50      15.67
H      -2.37      27.51      15.61
N       1.58      24.52      12.88
N       2.24      24.04      13.90
H       3.26      25.07       7.92
H       0.51      28.33       7.13
H       3.92      23.24      16.25
H       0.77      20.33      15.64
H      -2.35      23.47       9.61
H      -1.13      26.11      13.49
H       1.70      24.28      10.06
H      -0.37      22.01      13.70
C      -2.89      21.24       7.26
C      -1.81      20.85       8.07
C      -1.36      19.65       7.51
C      -4.83      25.33      15.85
C      -3.70      25.74      15.13
C      -3.22      26.87      15.82
C       2.71      25.93       7.54
C       1.55      26.55       8.03
C       1.31      27.59       7.13
C       3.24      22.40      16.28
C       2.10      22.15      15.50
C       1.62      20.91      15.97
C      -0.55      24.00      11.72
C      -1.27      21.52       9.24
C      -1.61      22.72       9.83
C      -3.09      25.08      13.99
C      -1.89      25.35      13.36
C       0.76      26.14       9.17
C       0.94      25.05      10.00
C       1.57      22.94      14.41
C       0.43      22.75      13.66
N      -2.11      19.34       6.43
N      -3.06      20.33       6.28
N      -4.01      27.11      16.88
N      -5.01      26.16      16.90
N       2.25      27.59       6.16
N       3.12      26.55       6.42
