32

O       3.31       1.01      14.65
O       5.14       2.37      14.63
O       8.80       0.97      13.25
O       9.21       0.71      11.07
O       2.10      -0.71      12.69
O       2.07       0.33      10.70
H       7.28      -2.32       8.52
H       4.63       2.87      15.34
H       8.71       0.58      10.21
H       1.09       0.33      10.87
C       5.91       3.13      11.77
C       5.20      -2.59      11.84
C       6.91       0.52      11.90
C       4.18       0.02      11.74
C       6.19      -0.31      10.76
C       4.92       0.84      12.88
C       5.32      -1.09      11.81
C       5.78       1.62      11.82
C       6.04      -0.26      12.95
C       5.05       0.80      10.69
C       6.93      -0.80       9.58
C       4.34       1.41      14.14
C       8.38       0.77      12.13
C       2.70      -0.19      11.75
Cl       6.60      -0.94      14.41
Cl       4.47       1.47       9.21
O       7.05       3.62      11.51
O       4.05      -3.10      11.71
O       4.82       3.75      11.94
O       6.31      -3.19      11.99
O       7.76      -0.11       8.99
O       6.66      -2.06       9.23
