28

H      16.80      17.31       4.50
H      14.63      13.55       4.50
H      13.67      19.12       7.06
H      11.50      15.36       7.06
O       8.66      18.19       9.79
O       9.80      20.16       9.79
O      19.64      14.47       1.76
O      18.50      12.51       1.76
F      18.69      16.48       3.05
F      16.29      12.33       3.05
F      12.00      20.34       8.51
F       9.61      16.19       8.51
C       9.63      18.94       9.46
C      18.66      13.73       2.09
C      17.60      14.34       2.96
C      17.66      15.68       3.40
C      16.69      16.27       4.20
C      15.58      15.51       4.61
C      15.48      14.17       4.20
C      16.47      13.62       3.40
C      14.58      16.09       5.42
C      13.72      16.58       6.13
C      12.72      17.16       6.94
C      12.82      18.50       7.35
C      11.83      19.05       8.15
C      10.69      18.33       8.60
C      10.64      16.99       8.15
C      11.61      16.40       7.36
