74

C       8.25      14.68       5.64
H      -3.88       4.12      11.81
N      -0.71       4.86       8.54
H      -3.60       2.03       6.35
N       7.80       9.96       8.80
O      -0.79      -0.30       4.78
H      -3.30       8.15      10.46
O      -5.45       5.73      12.75
H      10.20      12.94       6.26
H       4.11       8.44       6.57
O      12.27       6.78      12.10
H      -2.07       3.32      10.24
O      -5.04       7.87      12.25
H      -3.14       4.05       7.72
O      -2.98      -0.10       5.13
O      12.79       8.88      12.66
H       9.16      11.39      10.60
H       6.16       9.77       6.69
O       9.44      15.08       5.32
H      10.74       6.68      10.11
O       7.21      15.19       5.16
H       1.10       3.21       7.49
H      -1.51       7.37       8.87
H       0.60       1.21       6.07
H      10.00      10.84       7.61
H       4.83       7.01      10.59
H      11.06      10.52      12.01
H       8.85       7.54       8.68
H       0.58       5.74      10.68
H       2.74       6.91      10.71
H       6.09      13.87       7.05
H       5.88      11.81       8.47
H       6.86       8.35      10.71
H       0.77       5.48       6.38
H       2.92       6.66       6.40
C      -1.53       1.51       6.14
C      -1.78       0.30       5.30
C      -3.68       6.17      11.22
C       0.52       5.52       8.53
C      -4.78       6.63      12.13
C      -3.34       4.82      11.16
C      -2.58       2.30       6.60
C      -0.98       3.76       7.71
C      -1.70       5.30       9.47
C      -3.01       7.10      10.40
C      12.08       8.04      12.01
C       9.26      12.68       6.75
C       8.89       9.50       9.58
C       4.70       8.41       7.48
C       3.02       6.89       8.55
C      -2.35       4.38      10.30
C      10.99       8.56      11.13
C       4.28       7.63       8.58
C      -2.31       3.43       7.37
C       8.15      13.51       6.57
C       9.52      10.36      10.49
C       5.85       9.17       7.54
C      10.38       7.71      10.20
C       0.07       2.96       7.23
C       6.65       9.18       8.71
C       7.92      11.18       8.09
C      -2.02       6.67       9.53
C      -0.20       1.85       6.45
C       9.15      11.51       7.50
C       5.10       7.62       9.73
C      10.57       9.89      11.27
C       9.33       8.18       9.42
C       1.10       5.94       9.74
C       2.32       6.59       9.75
C       6.94      13.20       7.19
C       6.82      12.05       7.96
C       6.26       8.37       9.80
C       1.21       5.79       7.32
C       2.42       6.47       7.34
