36

H      10.42       9.06      13.98
H       6.11       9.04      24.89
H      10.42       9.14      24.89
H       6.11       8.96      13.98
H      10.56       9.10      17.51
H       5.97       9.00      21.36
H      10.56       9.14      21.35
H       5.97       8.95      17.52
C       8.26       8.99      12.34
C       8.27       9.11      26.54
C       9.48       9.03      14.53
C       7.05       9.07      24.34
C       9.48       9.12      24.34
C       7.05       8.98      14.53
C       9.50       9.05      15.92
C       7.03       9.05      22.95
C       9.50       9.12      22.95
C       7.03       8.98      15.92
C       8.26       9.02      16.66
C       8.27       9.08      22.21
C       8.26       9.00      13.84
C       8.27       9.10      25.03
C       8.27       9.06      20.77
C       8.27       9.04      18.10
N       7.08       9.00      18.78
N       9.45       9.10      20.09
N       7.08       9.01      20.09
N       9.45       9.09      18.78
O       5.83       9.01      22.35
O      10.71       9.15      22.34
O       5.82       8.95      16.52
O       9.40       8.99      11.76
O       7.13       9.11      27.11
O       9.40       9.11      27.11
O       7.13       8.99      11.76
O      10.71       9.09      16.52
