9

O       2.94      16.94      17.89
O       0.91      14.73      16.85
O       3.25      14.26      15.71
O       4.34      14.15      17.70
C       2.02      14.69      17.73
C       3.32      14.32      16.99
C       2.10      16.14      18.26
H       1.84      13.98      18.56
H       1.26      16.43      18.92
