32

C       7.88       2.92       0.16
C       5.88       4.90       0.03
C       2.89       7.89      -0.16
C       4.88       5.90      -0.03
O       9.30       1.42       1.34
O       9.40       1.47      -0.93
H       7.72       3.07       2.29
H       6.15       4.64       3.46
H       7.89       2.91      -1.96
H       3.05       7.73      -2.29
H       4.61       6.16      -3.46
O       1.37       9.34       0.93
O       1.47       9.39      -1.34
H       2.87       7.89       1.96
O       4.34       6.45       3.61
H       3.67       7.14       3.41
O       6.42       4.35      -3.62
H       7.09       3.67      -3.41
C       8.94       1.86       0.20
C       1.83       8.95      -0.20
C       7.35       3.44       1.33
C       6.35       4.43       1.30
C       5.80       4.99       2.49
C       7.42       3.37      -1.09
C       6.43       4.35      -1.18
C       5.93       4.84      -2.44
C       3.42       7.36      -1.34
C       4.41       6.37      -1.30
C       4.97       5.81      -2.49
C       3.34       7.43       1.09
C       4.33       6.45       1.17
C       4.83       5.96       2.44
