27

C      15.74       6.05      14.63
C      16.87       6.82      15.22
H      16.78       8.39      13.75
C      17.30       8.02      14.63
C      18.37       8.73      15.14
H      18.69       9.66      14.69
H      19.14       6.70      17.77
C      19.04       8.23      16.27
C      18.62       7.05      16.89
H      17.20       5.43      16.83
O      15.10       6.58      13.65
H      21.24      11.01      17.77
C      17.54       6.35      16.36
O      15.45       4.91      15.11
C      20.96       9.67      16.12
O      20.09       8.90      16.87
H      22.91      12.41      16.56
C      21.52      10.77      16.75
H      22.59       9.83      13.14
O      24.24      13.12      14.58
C      22.46      11.55      16.07
H      20.91       8.43      14.34
O      24.30      11.60      12.92
C      22.84      11.22      14.76
C      22.27      10.09      14.15
C      21.34       9.31      14.81
C      23.85      12.03      14.04
