16

C      -2.93       2.23      12.76
H      -6.58       2.67       9.81
N      -6.82      -0.90      12.37
N      -7.86      -0.85      11.52
N      -7.80       0.24      10.77
H      -4.37       0.03      13.52
H      -4.40       3.40      10.81
H      -2.59       3.16      12.27
H      -2.15       1.47      12.63
H      -2.99       2.44      13.84
C      -6.05       0.20      12.15
C      -6.67       0.93      11.11
C      -6.10       2.11      10.61
C      -4.89       2.50      11.18
C      -4.25       1.76      12.22
C      -4.83       0.61      12.72
