10

C       8.99       6.45      11.63
C      10.31       4.49      10.32
C      10.39       6.37      11.66
H      10.86       3.72       9.78
C       8.93       4.57      10.29
H       8.32       3.86       9.74
H      10.99       7.12      12.19
N       8.27       5.55      10.95
N      11.03       5.39      11.02
Cl       8.24       7.72      12.46
