34

H       4.49       6.48      12.76
H      -1.64       4.59      16.13
H       0.48       5.82      11.13
H       2.35       5.34      17.77
H      -3.58       4.63      11.76
H       6.42       6.47      17.13
H       5.98       6.75      14.69
H      -3.13       4.32      14.20
H       2.29       5.95      11.82
H       0.55       5.14      17.07
C       2.42       5.93      12.90
C       0.42       5.17      15.99
C       3.66       6.22      13.42
C      -0.82       4.87      15.47
C       4.64       5.72      19.04
C      -1.81       5.45       9.86
C       4.39       5.88      17.58
C      -1.56       5.26      11.32
C       5.18       6.43      15.36
C      -2.34       4.66      13.52
C       5.43       6.29      16.71
C      -2.59       4.83      12.18
C       3.12       5.65      17.07
C      -0.29       5.49      11.83
C       2.84       5.77      15.69
C      -0.00       5.35      13.20
C       3.90       6.16      14.82
C      -1.06       4.94      14.07
C       1.52       5.51      15.15
C       1.32       5.60      13.75
O       5.83       5.63      19.45
O      -3.01       5.53       9.45
O       3.60       5.69      19.79
O      -0.77       5.50       9.11
