32

H       6.81       5.93      13.70
H       2.54       5.52      13.77
H       6.81       6.45      16.16
H       2.52       6.09      16.21
H       6.80       6.12      21.91
H       2.50       6.33      21.93
H       6.77       5.60      24.37
H       2.49       5.87      24.39
C       4.66       6.59      17.76
C       5.86       6.05      22.46
C       3.43       6.18      22.47
C       5.84       5.77      23.82
C       3.43       5.91      23.83
C       4.63       5.71      24.52
C       4.65       6.26      21.77
C       4.70       5.41      12.12
C       4.61       5.48      26.01
C       5.88       5.95      14.27
C       3.47       5.73      14.30
C       5.88       6.24      15.63
C       3.45       6.04      15.66
C       4.66       6.30      16.33
C       4.68       5.69      13.59
C       4.65       6.57      20.34
N       3.47       6.79      18.40
N       5.84       6.79      18.40
N       3.47       6.77      19.71
N       5.84       6.78      19.72
O       5.81       5.61      11.53
O       3.62       5.02      11.57
O       5.68       5.07      26.56
O       3.52       5.74      26.60
