37

C      17.15      10.46      10.30
C      16.02      10.00       9.58
C      16.42       8.75       9.07
C      10.13      11.57       3.92
C      11.30      11.99       4.58
C      12.17      12.34       3.53
C       9.92      10.67      10.47
C      10.81      11.22       9.84
C      12.30      14.93       9.94
C      12.25      13.78       9.53
Si      12.14      12.07       8.94
H       9.77       8.11      11.98
H       7.11      11.42      11.09
H      12.31      17.58       8.59
H      12.38      16.10      12.67
C      14.79      10.65       9.40
C      13.71      11.22       9.23
C      11.55      12.04       5.96
C      11.77      12.06       7.16
H      17.28      11.38      10.86
H      15.86       8.06       8.45
N       6.92       9.62      12.20
N       7.76       8.57      12.48
H       9.19      11.22       4.34
H      13.19      12.71       3.58
N      12.37      18.03      11.80
N      12.35      18.50      10.50
C       8.95       8.81      11.89
C       8.89      10.04      11.21
C       7.58      10.51      11.44
C      12.33      17.44       9.67
C      12.33      16.25      10.42
C      12.36      16.69      11.76
N      17.68       8.49       9.45
N      18.13       9.54      10.22
N      11.57      12.13       2.34
N      10.30      11.66       2.59
