20

H       1.64       9.82      21.92
H      -2.43       7.83      23.98
H       1.86       8.09      23.71
H      -2.65       9.56      22.19
C      -0.70      12.57      18.97
C      -0.09       5.08      26.93
C       0.88       8.42      23.37
C      -1.67       9.23      22.53
C      -0.27       7.85      23.96
C      -0.52       9.80      21.94
C      -1.55       8.27      23.52
C       0.75       9.38      22.38
C      -0.16       6.88      24.98
C      -0.63      10.77      20.92
C      -0.69      11.61      20.03
C      -0.10       6.04      25.87
O       0.44      12.98      18.58
O      -1.23       4.67      27.33
O      -1.84      12.91      18.50
O       1.05       4.74      27.40
