66

H       5.09      12.97      10.55
H      10.69      23.31       8.65
H      11.67      15.12       6.72
H      12.51      15.15       8.28
H      12.70      13.75       7.20
H      11.11      13.15       9.02
H      10.26      13.19       7.48
H       9.55      15.59       7.99
H      10.29      15.46       9.56
H       8.84      12.22       9.02
H       3.87      20.94      12.10
H       4.88      20.91      13.56
H       3.80      22.29      13.25
H       6.17      22.90      12.71
H       5.17      22.94      11.26
H       5.94      20.62      10.66
H       6.91      20.56      12.10
H       4.21      17.99      12.05
H       3.21      16.61      12.53
H       4.30      17.36      13.71
H       7.42      23.91      11.09
H       5.31      15.22      12.86
H       6.29      16.60      12.36
H       5.11      16.59      10.13
H       4.19      15.17      10.64
H      12.11      18.21       8.18
H      13.11      19.56       7.60
H      13.50      18.77       9.14
H      12.34      20.95       9.59
H      11.35      19.60      10.14
H      10.07      19.71       7.95
H       8.91      16.66      11.65
H      11.01      21.14       7.51
H       7.17      19.53       7.98
H       9.34      19.11      11.67
H       6.72      17.08       7.96
C       9.86      22.84       9.18
C       6.25      14.78      10.25
C       9.64      21.46       9.12
C       7.50      15.25       9.80
C       8.55      20.94       9.84
C       8.47      14.35       9.33
C       7.71      21.81      10.57
C       8.15      12.99       9.36
C       8.02      23.17      10.56
C       8.52      17.29      10.84
C       7.55      18.90       8.78
C       8.76      18.67      10.86
C       7.30      17.53       8.77
C       8.28      19.48       9.83
C       7.78      16.71       9.81
C       9.78      14.86       8.78
C      10.77      13.83       8.22
C      11.98      14.50       7.57
C       6.53      21.26      11.34
C       5.60      22.27      12.01
C       4.47      21.56      12.78
C       5.16      15.69      10.75
C       5.31      16.11      12.22
C       4.20      17.07      12.65
C      10.60      20.58       8.36
C      11.76      20.08       9.24
C      12.67      19.10       8.50
C       6.04      13.40      10.23
N       6.96      12.53       9.80
N       9.07      23.66       9.88
