32

H       1.61       9.39       9.71
H       5.10      18.42      16.01
H       1.58      11.21      11.42
H       5.13      16.60      14.29
H       5.64      10.47       8.65
H       1.07      17.34      17.07
C       3.06      19.07      17.66
C       3.65       8.74       8.06
C       2.48      10.03       9.87
C       4.23      17.78      15.85
C       2.46      11.04      10.81
C       4.24      16.77      14.91
C       3.57      11.89      10.99
C       3.13      15.92      14.73
C       4.71      11.68      10.19
C       1.99      16.13      15.53
C       4.75      10.63       9.27
C       1.95      17.18      16.45
C       3.63       9.81       9.10
C       3.08      18.00      16.62
C       3.23      14.84      13.73
C       3.47      12.97      11.98
Br       6.20      12.86      10.28
Br       0.51      14.95      15.43
N       4.45      13.09      12.90
N       2.25      14.72      12.81
N       4.33      14.05      13.80
N       2.38      13.76      11.91
O       1.92      19.44      18.09
O       4.79       8.37       7.62
O       4.19      19.51      18.04
O       2.51       8.30       7.68
