74

H       4.03      15.21      15.62
H       0.36      18.33      14.51
H       7.05      17.14      16.70
H      11.59      16.39      14.90
H       5.77      18.85       1.82
H       1.23      19.70       3.60
H       9.69      21.25       4.17
H      11.60      17.02       2.46
H       8.28      19.45       8.35
H       4.64      16.60      10.10
Br       1.79      14.43      17.37
Br       2.48      19.08      12.74
Br       8.83      17.26      19.04
Br       9.88      15.88      12.68
Br       3.97      18.52      -0.48
Br       2.97      20.29       5.80
Br      12.20      22.02       3.03
Br       9.09      16.26       3.80
Br       8.60      19.56      11.21
Br       4.32      16.49       7.23
C       8.07      19.10       4.65
C       6.74      18.62       6.41
C       5.82      19.20       4.41
C       4.77      16.92      13.76
C       7.02      16.91      14.08
C       6.15      17.44      12.05
C      11.73      16.97      17.42
C       1.12      18.94       1.09
C      13.15      18.99       1.84
C      -0.32      16.76      16.51
C       3.20      15.85      15.35
C       3.41      16.81      14.34
C       2.34      17.68      14.01
C       1.14      17.60      14.70
C       0.94      16.64      15.70
C       1.97      15.74      15.99
N       7.03      19.35       3.84
N       5.80      16.72      14.61
N       7.24      17.33      12.82
N       4.89      17.21      12.46
C       8.05      16.95      16.32
O      11.95      16.39      18.52
C       8.20      16.73      14.94
C       9.50      16.45      14.45
C      10.59      16.53      15.30
C      10.44      16.80      16.67
O      12.57      17.69      16.77
C       9.15      16.95      17.19
C       4.77      19.07       2.19
C       4.62      19.36       3.56
C       3.33      19.66       4.04
C       2.23      19.54       3.20
C       2.38      19.20       1.85
O       0.90      19.49      -0.02
C       3.68      19.01       1.34
C      10.12      20.31       3.82
C       9.42      19.12       4.01
C       9.98      17.93       3.55
C      11.19      17.94       2.86
C      11.89      19.14       2.64
C      11.35      20.33       3.16
C       7.48      18.82       8.75
C       6.57      18.26       7.83
C       5.54      17.44       8.34
C       5.43      17.23       9.71
C       6.34      17.79      10.62
C       7.37      18.61      10.12
O      13.96      19.96       1.71
O      -0.45      17.92      17.02
O      13.32      17.82       1.33
O      -1.11      15.78      16.63
O       0.33      18.14       1.71
N       8.00      18.78       5.95
N       5.63      18.80       5.68
