36

O      -2.34      -4.59      14.26
O      -4.39      -4.08      12.91
O      -4.25      -6.17      14.11
H      -4.32     -10.61      22.97
H      -3.12      -8.39      18.68
O      -3.28     -14.91      19.70
O      -5.22     -15.90      20.94
O      -5.63     -14.39      19.10
H      -2.22     -12.25      16.99
H      -2.61      -7.31      16.51
H      -1.75     -11.19      14.79
H      -1.78      -8.37      10.11
H      -5.15     -13.85      18.44
H      -3.64      -6.92      14.31
C      -4.52     -11.60      22.57
C      -2.13      -7.48      10.61
C      -2.54      -8.40      16.61
C      -2.32     -11.17      16.87
C      -2.18      -9.18      15.48
C      -2.73     -10.40      17.97
C      -2.05     -10.58      15.65
C      -2.81      -9.00      17.83
C      -2.05      -8.56      14.22
C      -3.12     -11.01      19.19
C      -3.54     -11.51      20.21
C      -2.04      -7.99      13.13
C      -4.66     -13.45      21.38
C      -2.76      -5.89      12.01
C      -4.15     -12.13      21.31
C      -2.23      -7.20      11.99
S      -4.59     -14.79      20.27
S      -3.40      -5.01      13.39
N      -5.21     -12.53      23.28
N      -5.30     -13.66      22.54
N      -2.95      -5.44      10.77
N      -2.58      -6.42       9.90
