30

H       4.30      -0.28      12.22
H       1.50      -1.76       7.62
H       0.54       1.45      11.10
H       5.26      -3.49       8.75
H       7.04      -2.88       9.92
H       6.11      -4.04      10.93
H       7.22      -2.85      11.70
H      -0.31       2.00       8.91
H      -1.24       0.84       9.93
H      -1.43       0.81       8.15
C       3.38      -3.54       6.87
C       2.42       1.50      12.98
C       2.42       0.65      11.76
C       3.37      -2.69       8.09
C       4.49      -2.01      10.12
C       1.31      -0.03       9.72
C       4.46      -2.79       8.99
C       1.33       0.75      10.86
C       2.33      -1.81       8.32
C       3.47      -0.23      11.53
C       2.36      -0.98       9.46
C       3.44      -1.06      10.39
C       6.52      -3.02      10.88
C      -0.72       0.98       8.97
O       2.28      -3.71       6.25
O       3.52       1.67      13.60
O       4.50      -4.03       6.51
O       1.29       1.99      13.33
O       5.48      -2.04      11.06
O       0.32       0.01       8.79
