20

H       8.44       7.05      15.02
H      10.40       8.59      17.50
O      10.43      10.66      15.72
O       8.25      10.99      15.90
O       7.36       7.23      17.53
H       6.47       6.13      15.98
H       6.05       7.89      16.02
H       5.40       6.77      17.27
C       9.43       8.09      19.38
C       8.64       7.94      15.62
C       9.02       9.03      14.93
C       8.47       7.83      17.07
C       9.47       8.22      17.92
C       9.18       9.02      13.44
C       6.26       7.00      16.63
N       9.25      10.33      15.58
O       8.32       7.96      19.99
O      10.59       8.15      19.97
O       9.19       7.89      12.88
O       9.25      10.17      12.86
