24

H       0.58      18.94       0.74
H      -0.47      23.51      -0.69
H       2.36      21.13       0.87
H      -2.25      21.32      -0.83
C       0.17      24.52       4.34
C      -0.12      18.13      -4.44
C      -0.79      20.85       0.99
C       0.90      21.60      -0.95
C       0.35      19.96       0.42
C      -0.24      22.49      -0.38
C      -0.15      18.85      -3.19
C       0.22      23.68       3.17
C      -1.23      21.28      -0.44
C       1.34      21.17       0.49
C      -0.09      20.36      -1.04
C       0.20      22.09       1.09
C      -0.17      19.50      -2.16
C       0.27      22.96       2.19
I      -2.08      20.29       2.58
I       2.19      22.16      -2.53
O      -0.98      24.90       4.73
O       1.04      17.84      -4.88
O       1.28      24.80       4.89
O      -1.24      17.87      -4.98
