27

C       2.08       6.52      14.93
O       0.67       7.90      13.55
H       4.47       4.61      16.44
C       3.35       5.88      15.12
O       2.69       7.44      12.81
H       0.49       5.59      17.82
C       3.52       5.13      16.31
H       0.13       6.91      15.75
C       2.51       5.00      17.27
O       4.45       1.94      22.67
C       1.27       5.66      17.06
O       2.61       0.74      22.12
H       0.78       3.27      18.43
H       5.18       3.39      20.73
O       4.34       5.93      14.26
C       1.08       6.40      15.91
H       4.78       4.87      18.77
C       2.75       4.18      18.47
O       0.96       1.67      20.42
C       1.74       3.33      18.94
C       1.96       2.49      20.04
C       3.21       2.53      20.72
C       4.21       3.40      20.24
C       3.99       4.21      19.13
C       3.46       1.69      21.92
H       1.34       1.10      21.15
C       1.80       7.30      13.73
