12

C       8.33       5.46      19.37
O       7.38       5.97      25.13
C       8.18       5.15      24.56
C       8.30       5.48      18.03
C       8.43       5.38      23.16
C       8.43       5.43      21.94
C       8.40       5.46      20.60
O       9.34       4.83      14.86
O       8.17       6.78      14.88
C       8.31       5.51      16.80
C       8.61       5.71      15.41
O       8.70       4.11      25.07
