30

H       9.12       8.31      12.48
H       9.13       8.47      14.98
H      13.31       7.38      14.99
H       8.28       8.68      18.68
H      12.46       7.60      18.69
H      12.47       7.75      21.19
H      13.38       7.23      11.44
H       8.21       8.84      22.23
C      10.46       8.37      22.81
C      11.13       7.70      10.86
C      11.19       7.79      12.32
C      10.03       8.13      13.04
C      10.03       8.20      14.42
C      11.22       7.92      15.12
C      12.39       7.59      14.43
C      12.40       7.53      13.03
C       9.20       8.47      19.23
C      10.37       8.15      18.55
C      11.56       7.86      19.25
C      11.56       7.94      20.62
C      10.40       8.28      21.35
C       9.19       8.54      20.63
N      11.34       7.94      16.53
N      10.25       8.13      17.14
O      11.58       8.22      23.39
O      12.24       7.45      10.23
O      10.01       7.84      10.27
O       9.35       8.62      23.44
O      13.56       7.20      12.42
O       8.03       8.86      21.24
