17

O      10.24      10.77      14.64
O       9.21       8.73      14.52
H      13.58      11.20      12.96
O      16.72       7.55       9.85
S      11.18       7.37      12.92
S      14.76       8.96      11.47
O      15.64       5.53       9.76
C      10.16       9.55      14.26
C      12.43       9.67      13.04
C      13.51       6.66      11.35
H      13.30       5.62      11.10
C      15.75       6.75      10.12
C      11.26       9.02      13.46
C      13.24       8.80      12.27
C      14.66       7.30      10.94
C      12.69       7.52      12.12
O      12.72      10.96      13.34
