48

H      -1.08      10.21       9.00
H      -1.06       7.15       8.80
H      -5.80       9.81      11.91
H      -6.97      10.38      10.71
H      -5.54      11.35      11.09
H      -3.34      11.64      10.89
H      -1.97      10.50      10.94
H      -3.38      10.24      11.97
H      -5.92       7.75       6.12
H      -6.72       6.95       7.47
H      -5.14       6.36       6.90
H      -2.76       6.64       6.87
H      -1.97       8.20       6.58
H      -3.54       7.84       5.83
H       1.37       9.44      12.00
H      -0.19       9.10      11.23
H       0.61      10.67      10.99
H       3.02      10.89      11.04
H       4.60      10.29      10.49
H       3.71       9.44      11.77
H       1.15       7.28       5.79
H      -0.17       6.84       6.88
H       1.28       5.82       6.77
H       3.51       6.13       6.66
H       4.82       7.30       6.86
H       3.46       7.65       5.79
C      -5.04       8.17       8.04
C      -3.64       8.33       7.93
C      -2.97       9.09       8.90
C      -3.72       9.75       9.89
C      -5.12       9.62       9.89
C      -1.49       9.21       8.92
C      -0.65       8.16       8.88
C       1.57       7.66       7.88
C       0.82       8.28       8.89
C       1.50       9.00       9.90
C       2.90       9.15       9.80
C       2.97       7.82       7.86
C      -5.91      10.33      10.94
C      -3.06      10.57      10.97
C      -5.74       7.26       7.09
C      -2.94       7.72       6.74
C       0.78       9.58      11.09
C       3.61       9.99      10.82
C       0.92       6.86       6.78
C       3.75       7.20       6.75
N      -5.76       8.82       8.99
N       3.61       8.56       8.81
