12

C       8.33       9.71      22.82
C       8.47       9.46      21.63
C       8.61       9.22      20.32
C       8.75       9.02      19.11
C       8.92       8.80      17.80
O       8.35      11.33      24.44
O       7.35       9.33      24.88
C       9.11       8.57      16.61
C       9.48       8.15      15.29
O       9.16       6.98      14.96
C       8.00      10.16      24.14
O      10.16       9.00      14.59
