10

C       4.98       4.78       8.54
C       5.82       5.02      15.17
C       5.15       4.83       9.97
C       5.65       4.97      13.74
C       5.31       4.87      11.19
C       5.49       4.92      12.52
O       3.79       4.95       8.10
O       7.00       4.85      15.61
O       6.03       4.57       7.86
O       4.77       5.23      15.85
