32

O       5.43       7.62      14.03
O       3.16       7.65      14.00
O       4.98      -3.58      24.40
O       2.71      -3.54      24.38
H       6.03      -2.09      22.83
H       6.12      -0.24      21.12
H       1.82      -0.02      21.17
H       1.75      -1.87      22.87
H       6.32       4.08      17.22
H       6.39       5.94      15.52
H       2.11       6.16      15.57
H       2.02       4.31      17.28
C       4.29       7.23      14.42
C       5.12      -1.62      22.45
C       5.17      -0.60      21.51
C       3.98      -0.02      21.05
C       2.74      -0.48      21.54
C       2.70      -1.50      22.48
C       3.89      -2.08      22.95
C       4.12       3.00      18.34
C       4.03       1.08      20.07
C       5.40       4.54      16.86
C       5.44       5.57      15.92
C       4.25       6.15      15.45
C       3.02       5.69      15.95
C       2.97       4.67      16.89
C       4.17       4.09      17.35
C       3.86      -3.15      23.98
N       2.86       1.63      19.67
N       2.90       2.61      18.79
N       5.29       2.45      18.74
N       5.24       1.47      19.62
