20

C       7.72       7.72       7.69
C       7.72       7.72       6.22
H       9.53       6.72      10.41
H       9.63       6.71       7.89
C       8.74       7.16       9.80
C       8.77       7.14       8.41
H       5.91       8.73      10.41
H       5.81       8.74       7.89
C       6.70       8.28       9.80
C       6.66       8.30       8.41
H       7.02       9.67       3.50
H       6.99       9.76       6.01
H       8.42       5.78       3.50
H       8.45       5.69       6.01
C       7.32       8.82       4.11
C       7.30       8.85       5.50
C       8.11       6.63       4.11
C       8.14       6.59       5.49
N       7.72       7.72      10.48
N       7.72       7.72       3.43
