16

C      19.71      10.20       2.98
Br      21.24      12.69       2.92
C      19.79      11.55       3.41
C      17.58      10.03       4.22
C      18.79      12.13       4.22
C      18.58       9.45       3.41
Br      18.32       7.63       2.92
C      17.66      11.38       4.65
Br      19.05      13.95       4.71
O      15.60      11.28       5.88
C      20.79       9.57       2.09
Br      16.13       8.89       4.71
C      16.58      12.01       5.54
O      21.78      10.30       1.75
O      20.65       8.36       1.75
O      16.72      13.22       5.88
