24

O       2.94      -5.00       8.91
O       0.99      -5.00      15.95
O       2.81      -3.66      15.92
H       2.86      -1.23      13.67
H       1.08      -1.22      13.69
H       1.06      -1.23      11.18
H       2.84      -1.22      11.17
H       2.19      -6.79      10.08
H       1.46      -7.51      11.42
H       1.73      -6.79      14.78
H       2.46      -7.51      13.43
C       2.02      -4.34       9.52
C       1.90      -4.34      15.33
C       1.91      -4.37      13.86
C       2.01      -4.37      10.99
C       1.96      -3.19      13.12
C       2.02      -5.58      11.72
C       1.96      -3.19      11.73
C       1.90      -5.58      13.14
C       1.96      -1.67      13.22
C       1.96      -1.67      11.63
N       2.15      -6.83      11.09
N       1.77      -6.83      13.76
O       1.11      -3.66       8.93
