36

H       2.56       0.75       5.22
H       5.21      -6.94       4.84
H      10.93      -3.47       7.53
H      11.68      -5.02       7.94
H      12.11      -4.20       6.43
H      10.52      -6.10       5.96
H       9.78      -4.55       5.55
H       8.56      -4.54       7.74
H       9.33      -6.07       8.18
H       7.08      -1.08      10.50
H       6.08       0.02      11.48
H       5.64      -1.69      11.35
H       4.15      -0.31       9.89
H       5.12      -1.41       8.91
H       6.67       0.41       8.28
H       5.89       1.53       9.41
C       4.71       1.06       7.71
C       3.19       0.99       6.07
C       4.34       0.33       6.54
C       7.88      -6.22       6.63
C       6.11      -6.87       5.44
C       6.75      -5.72       5.94
C       4.93      -0.87       6.12
C       5.43      -1.97       5.94
C       5.92      -3.22       5.84
C       6.33      -4.38       5.85
C       8.97      -5.48       7.33
C      10.15      -5.16       6.39
C      11.28      -4.42       7.11
C       5.70       0.67       8.75
C       5.18      -0.53       9.57
C       6.05      -0.83      10.79
N       3.85       2.08       7.86
N       2.89       2.03       6.89
N       7.88      -7.56       6.54
N       6.79      -7.97       5.80
