14

C       5.55       8.57       6.23
H       3.53       9.82       5.01
C       5.59      11.62       2.96
C       4.49      10.06       4.55
C       4.50      10.98       3.42
C       5.59       9.47       5.06
H       6.58       9.63       4.63
O       6.69       8.14       6.62
O       4.43       8.30       6.76
H       3.54      11.17       2.92
O       4.49      12.73       1.17
O       6.73      12.98       1.46
H       6.56      11.51       3.44
C       5.59      12.50       1.78
