22

H       3.74      11.79      11.89
H       8.09      15.80      11.63
H       7.84      17.52      13.39
C       5.61      11.52      10.11
C       5.56      12.64      11.11
C       5.98      16.74      14.15
C       7.23      15.78      12.30
C       7.10      16.74      13.27
C       5.05      15.73      14.03
C       5.16      14.67      13.08
C       6.30      14.72      12.18
C       6.47      13.68      11.21
C       4.45      12.61      11.99
C       4.26      13.57      12.96
C       5.91      17.82      15.19
Br       2.73      13.29      14.06
Br       7.94      13.82      10.00
O       4.47      11.13       9.69
O       6.73      11.05       9.76
O       4.76      18.22      15.56
O       7.03      18.24      15.59
F       4.00      15.72      14.88
