32

H      18.08       6.85       2.89
H      22.32       6.47       2.18
H      18.12      -1.30       7.52
H      22.28      -1.85       6.50
O      19.11      -3.35       8.36
O      21.29      -3.68       7.76
O      21.33       8.55       1.37
O      19.07       8.66       1.58
H      22.42       3.37       3.88
H      17.98       3.73       4.56
H      22.37       1.24       4.77
H      18.03       1.84       5.87
C      20.20      -3.01       7.79
O      22.58       4.17       3.36
O      17.82       4.61       4.17
O      22.54       0.39       5.22
O      17.86       0.99       6.34
C      20.20       8.09       1.75
C      20.20       6.78       2.47
C      19.00       6.29       3.00
C      19.00       5.07       3.66
C      20.20       4.32       3.80
C      21.40       4.85       3.25
C      21.40       6.07       2.59
C      20.20       3.08       4.48
C      20.20       2.00       5.06
C      20.20       0.76       5.74
C      19.02       0.28       6.37
C      19.02      -0.94       7.03
C      20.20      -1.70       7.07
C      21.38      -1.25       6.46
C      21.38      -0.03       5.80
