36

N       0.18       8.53      28.71
N      -2.40      17.01      24.83
C       0.17       9.35      27.64
N      -4.08      14.00      28.47
C      -1.48      10.77      28.66
C      -1.47       9.91      29.77
C      -0.62       8.80      29.75
N      -2.16      12.85      27.66
N      -7.69      13.07      31.84
C      -0.64      10.47      27.58
H       0.85       9.09      26.83
H      -0.64      11.12      26.70
N      -3.36      12.00      29.53
H      -2.12      10.10      30.62
H      -0.58       8.10      30.58
C      -3.20      17.20      25.89
C      -3.43      16.21      26.83
C      -1.94      14.79      25.59
H      -4.09      16.38      27.68
H      -3.67      18.19      25.97
C      -1.79      15.82      24.68
H      -1.43      13.84      25.45
H      -1.18      15.71      23.78
C      -7.36      14.15      31.10
C      -6.24      14.17      30.28
H      -5.98      15.06      29.71
C      -5.43      13.03      30.22
C      -5.79      11.90      30.97
C      -4.22      13.01      29.37
H      -5.18      11.00      30.93
C      -2.37      11.94      28.62
C      -6.93      11.96      31.76
H      -8.03      15.01      31.19
H      -7.26      11.12      32.37
C      -3.02      13.89      27.67
C      -2.79      14.97      26.68
