18

C      23.94       6.52       4.61
C      26.47       9.34       6.60
C      25.16       8.62       4.61
C      24.35       6.29       5.93
O      26.89      10.38       5.97
H      25.49       7.03       7.61
O      26.89       9.09       7.80
C      24.35       7.69       3.95
O      24.40       4.79       7.80
O      23.29       4.15       5.97
O      24.40       8.95       1.92
C      23.98       5.02       6.60
C      25.16       7.22       6.59
C      23.98       7.90       2.54
O      23.29       7.01       1.92
H      23.33       5.79       4.09
C      25.56       8.39       5.93
H      25.49       9.52       4.09
