30

H       4.59       9.49      12.78
H       4.36       9.51      15.24
H       7.99       7.18      15.54
H       3.02       9.35      19.34
H       7.15       8.12      19.61
H       6.94       8.07      22.08
H       7.00       7.86      17.51
H       4.22       9.16      17.36
C       6.50       8.48      11.26
C       4.83       8.50      23.61
C       6.42       8.37      12.75
C       5.33       8.99      13.40
C       5.21       8.99      14.78
C       6.17       8.35      15.59
C       7.24       7.71      14.94
C       7.37       7.71      13.55
C       6.13       8.31      17.04
C       5.11       8.75      17.83
C       3.88       9.04      19.93
C       5.08       8.70      19.28
C       6.19       8.35      20.08
C       6.08       8.32      21.46
C       4.87       8.61      22.12
C       3.77       8.99      21.32
Br       8.83       6.70      12.86
Br       2.10       9.54      22.06
O       7.64       8.36      10.74
O       5.41       8.71      10.63
O       3.76       8.05      24.12
O       5.89       8.82      24.24
