32

H       0.80      12.70      10.56
H       3.20      16.31      10.56
H       3.20      12.70       6.19
H       0.80      16.31       6.19
H       0.59      12.74      14.07
H       3.41      16.27      14.07
H       3.41      12.74       2.68
H       0.59      16.27       2.68
C       2.00      14.51       2.09
C       2.00      14.51      14.66
C       2.00      14.51      13.22
C       1.29      13.50      12.49
C       1.33      13.49      11.10
C       2.00      14.51      10.40
C       2.67      15.53      11.10
C       2.71      15.51      12.49
C       2.00      14.51       8.99
C       2.00      14.51       7.77
C       2.00      14.51       6.35
C       2.67      13.49       5.65
C       2.71      13.50       4.27
C       2.00      14.51       3.53
C       1.29      15.51       4.27
C       1.33      15.53       5.65
O       2.93      13.85       1.45
O       1.08      15.17       1.45
O       2.92      15.17      15.30
O       1.07      13.85      15.30
O       0.60      12.52      13.10
O       3.40      16.50      13.11
O       3.40      12.52       3.65
O       0.60      16.50       3.65
