28

C      12.37       9.57      31.06
C      13.76       9.57      31.03
C      14.47       8.79      31.96
C      13.74       8.01      32.89
C      12.35       8.09      32.84
C      15.88       8.80      31.96
C      17.10       8.84      31.98
C      18.52       8.88      32.03
C      19.25       9.85      31.29
C      20.64       9.82      31.42
C      20.60       8.01      32.87
C      19.22       7.96      32.83
H      11.77      10.16      30.36
H      14.30      10.18      30.30
H      11.72       7.53      33.54
H      21.26      10.54      30.89
H      21.20       7.30      33.45
H      18.68       7.21      33.41
C      14.40       7.12      33.91
C      18.59      10.85      30.39
N      11.68       8.85      31.95
N      21.30       8.92      32.17
H      14.26       6.06      33.64
H      15.48       7.32      33.97
H      13.96       7.27      34.90
H      18.60      10.50      29.35
H      17.54      11.01      30.68
H      19.12      11.81      30.42
