14

N       7.81      -0.30      10.47
N       7.81       0.78      11.24
C       8.92       2.49      12.58
C       8.98       1.26      11.70
C      10.23       0.69      11.40
C      10.23      -0.43      10.59
H      11.14       1.13      11.80
C       8.98      -0.90      10.16
C       8.92      -2.13       9.28
H      11.14      -0.95      10.30
O      10.06       2.95      12.92
O       7.78       2.94      12.90
O       7.78      -2.58       8.96
O      10.06      -2.60       8.95
