31

H       1.99       4.27      14.06
H       4.84       7.73      15.81
H       6.75       8.74      14.30
C       4.53       5.80      13.10
H       3.65       6.98      10.59
H       4.92       5.78      10.19
H       2.59       5.36      12.13
C       4.32       6.19      14.42
H       3.86       4.15      11.76
C       5.30       7.16      15.00
C       5.97       8.11      13.88
C       5.82       7.85      12.58
H       2.66       8.07      16.05
C       5.16       6.72      12.18
H       7.34       8.28      16.83
H       6.11       3.80      14.68
H       6.86       4.51      13.25
H       7.84       3.53      14.37
C       4.34       6.23      11.01
C       3.67       5.20      11.99
C       2.27       7.16      15.59
C       2.97       6.11      14.95
C       7.03       4.27      14.31
C       1.93       5.24      14.55
C       7.38       5.48      15.12
C       7.51       7.34      16.31
N       0.73       5.78      14.85
N       0.94       6.97      15.49
N       8.63       5.58      15.64
C       6.62       6.60      15.51
N       8.72       6.74      16.37
