16

C       2.72       6.31      19.71
C      -1.88       6.28      19.58
C       0.37       6.29      18.95
C       0.47       6.27      20.35
C       4.19       6.33      19.69
S       1.90       6.33      18.17
S      -1.07       6.26      21.12
C      -3.35       6.29      19.54
O       4.74       6.35      18.54
O       4.80       6.31      20.82
O      -3.92       6.27      20.70
O      -3.94       6.33      18.42
C       1.83       6.28      20.77
F      -1.30       6.30      17.23
F       2.18       6.27      22.06
C      -0.97       6.29      18.53
