20

H       4.07      12.03       4.68
H       9.04      13.64       5.88
C       5.80      12.08       6.83
C       6.89      13.78       5.31
C       5.86      12.86       5.56
C       4.89      12.74       4.57
C       4.96      13.50       3.40
C       5.95      14.47       3.15
C       6.91      14.56       4.17
C       8.13      15.32       4.64
C       8.18      14.33       5.88
C       5.97      15.34       1.94
O       6.91      11.88       7.40
O       4.65      11.73       7.24
O       4.85      15.66       1.44
O       7.12      15.69       1.52
F       4.02      13.26       2.46
F       7.92      16.63       4.99
F       9.24      15.31       3.83
F       8.11      14.94       7.13
