26

H       4.59      10.99       7.55
H       4.54      13.46       7.57
H       7.64      13.26      10.63
H       7.54      10.84      10.44
H       3.86      17.88       7.08
H       6.96      17.68      10.14
O       7.02      15.63      10.12
O       4.48      15.51       7.59
H       3.96      20.30       7.28
H       6.91      20.15      10.17
H       7.49      14.91      10.56
H       4.01      16.23       7.16
C       5.24      11.55       8.21
C       5.22      12.94       8.23
C       6.08      13.65       9.11
C       6.92      12.85       9.91
C       6.89      11.47       9.83
C       6.13      15.11       9.22
C       5.37      16.03       8.50
C       4.58      18.29       7.80
C       5.42      17.49       8.61
C       6.28      18.20       9.48
C       6.25      19.59       9.50
C       4.61      19.67       7.89
N       6.06      10.82       9.00
N       5.44      20.32       8.72
