28

O       9.67       3.90       0.16
O       6.71      -3.15      -1.38
O       5.88      -3.37       0.69
H      10.24       0.76       1.86
H       8.22      -3.00       2.06
H       6.26      -0.78      -1.78
H       8.27       2.98      -1.98
H      11.30       1.34       0.11
H       7.42      -2.64      -1.82
C      10.15      -1.49       3.24
C       6.38       1.44      -3.19
C       9.52       0.07       1.41
C       8.37      -2.06       1.54
C       7.64      -1.76       0.41
C       7.82      -0.51      -0.26
C       7.04      -0.13      -1.38
C       8.16       2.01      -1.50
C       8.95       1.69      -0.41
C       8.79       0.42       0.25
C       9.33      -1.15       2.03
C       7.21       1.09      -1.99
C       9.95       2.73       0.03
C       6.66      -2.80      -0.05
O      10.98      -0.62       3.64
O       5.54       0.58      -3.59
O       9.92      -2.64       3.76
O       6.58       2.60      -3.69
O      11.23       2.31       0.25
