23

H       1.53       5.98      15.82
H       1.32       7.32      14.68
H       2.64       7.36      15.87
H       0.97       7.53      17.75
H       0.78       8.87      16.61
H      -0.93       6.32      16.61
H      -1.10       7.66      15.47
C      -1.90      11.07      13.51
C      -2.02       6.86      19.76
C      -1.72       8.11      17.47
C      -2.27       9.32      17.15
C      -2.10       9.93      15.91
C      -1.92       7.50      18.72
C      -1.97      10.45      14.81
C      -2.04       6.11      20.98
C      -0.80       7.40      16.50
C       0.68       7.78      16.71
C       1.59       7.07      15.72
I      -3.47      10.41      18.51
O      -0.74      11.33      13.05
O      -3.02      11.29      12.95
O      -0.91       5.69      21.38
O      -3.17       5.92      21.55
