26

Cl       4.48      15.89       5.00
Cl       5.04      22.92      10.70
H       5.42      17.27       7.10
H       4.13      21.56       8.56
H       7.48      18.65      10.73
O       2.45      16.71       3.22
H       2.00      20.14       5.00
H       3.18      20.97       6.98
O       6.98      22.05      12.55
H       6.36      17.85       8.70
O       8.08      20.07      12.48
O       1.41      18.72       3.24
C       2.23      17.86       3.71
C       7.22      20.91      12.04
C       3.01      18.26       4.92
C       6.47      20.53      10.81
C       4.00      17.46       5.54
C       4.67      17.93       6.67
C       5.51      21.34      10.16
C       4.86      20.89       9.01
C       6.74      19.27      10.23
C       6.10      18.83       9.09
C       2.76      19.52       5.48
C       3.43      19.98       6.60
C       4.41      19.18       7.23
C       5.13      19.63       8.45
