40

H     -10.42       4.84      18.50
H     -11.30       2.82      14.83
H     -10.47      13.08      13.97
H     -11.26      11.05      10.28
H     -10.62       4.35      12.65
C     -10.35       7.37      17.58
C     -11.38       4.95      13.18
H     -11.11       7.50      18.36
H     -10.35       8.27      16.95
H      -9.37       7.32      18.08
H     -11.37       5.96      12.76
H     -12.35       4.50      12.96
C     -10.37      10.95      15.61
H     -12.35       8.56      10.73
H     -11.31       7.62      11.83
H     -10.62       8.41      10.40
H      -9.37      11.37      15.83
H     -10.41       9.94      16.04
H     -11.10      11.57      16.13
O     -10.74      14.55      12.05
O     -10.98      13.45      10.06
O     -10.55       2.42      18.69
O     -11.18       1.36      16.77
C     -11.36       8.52      11.21
C     -10.86      13.49      11.34
C     -10.86       2.40      17.45
C     -10.86       3.71      16.73
C     -10.61       4.90      17.42
C     -10.61       6.13      16.78
C     -10.86       6.17      15.37
C     -11.11       4.96      14.66
C     -11.11       3.75      15.35
C     -10.86       7.41      14.69
C     -10.86       8.49      14.10
C     -10.86       9.73      13.41
C     -10.63      10.94      14.13
C     -10.64      12.15      13.44
C     -10.86      12.19      12.06
C     -11.08      11.00      11.35
C     -11.09       9.77      12.01
