26

C       1.75      -3.77      10.05
C       5.65      -9.24      14.92
C       2.60      -4.23      11.05
C       4.79      -8.78      13.92
C       3.18      -5.50      10.93
C       4.21      -7.51      14.04
C       2.86      -6.25       9.80
C       4.53      -6.75      15.17
C       2.00      -5.71       8.84
C       5.39      -7.29      16.13
C       4.08      -6.05      12.00
C       3.31      -6.96      12.97
H       1.29      -2.78      10.09
N       1.45      -4.50       8.96
H       6.10     -10.23      14.88
N       5.94      -8.51      16.01
H       2.82      -3.60      11.91
H       4.57      -9.41      13.06
H       3.27      -7.25       9.63
H       4.12      -5.76      15.34
H       1.76      -6.26       7.93
H       5.63      -6.74      17.04
H       4.90      -6.62      11.54
H       2.49      -6.38      13.44
H       4.54      -5.22      12.57
H       2.85      -7.78      12.41
