28

N       7.63       1.86      20.11
H       9.28      -0.14      21.73
N      11.79       0.14      19.76
O       8.80       3.61      15.50
O      11.52       0.42      26.79
O       9.24       0.57      26.86
H      12.59       2.12      21.84
H       6.90       2.14      20.77
H       7.53       2.41      19.25
O      11.05       3.42      15.16
F       8.83       4.01      22.28
H      12.24      -0.56      20.35
H      11.31      -0.32      18.99
F      11.32       4.41      20.36
C      10.97       1.03      20.48
C      11.55       2.08      21.49
C      10.38       1.36      25.01
C      10.09       2.65      17.13
C       9.70       0.82      21.42
C      10.30       1.87      22.44
C       8.94       1.96      20.66
C      10.19       2.17      19.71
C       9.54       3.02      21.67
C      10.79       3.21      20.74
C      10.35       1.64      23.83
C       9.96       3.25      15.84
C      10.14       2.39      18.32
C      10.40       0.76      26.32
