20

O       3.34       7.09       7.50
H       7.71       9.28       8.09
O       5.54      14.10       8.19
O       3.28      14.06       8.26
H       2.36       9.29       8.06
H       2.34      11.76       8.39
H       7.43      12.07       6.79
H       7.67      11.76       8.53
H       7.41       9.60       6.35
C       4.48       7.68       7.55
C       4.47       9.16       7.69
C       3.28       9.86       7.98
C       3.27      11.24       8.17
C       4.45      12.01       8.10
C       5.63      11.31       7.84
C       7.12      11.45       7.64
C       7.13       9.89       7.37
C       4.42      13.49       8.21
C       5.64       9.93       7.63
O       5.61       7.11       7.51
