36

C       7.51      11.03      14.55
C       6.39      11.00      15.37
C       5.49      12.07      15.34
C       5.78      13.17      14.53
C       6.93      13.13      13.74
N       7.76      12.07      13.73
H       8.23      10.22      14.52
H       6.19      10.14      16.01
H       5.11      14.02      14.50
H       7.20      13.96      13.08
N       4.08      10.98      16.97
N       3.35      13.01      15.98
C       2.76       9.90      18.67
N       2.07      12.01      17.71
C       2.97      11.02      17.72
C       4.24      12.02      16.14
C       2.30      12.97      16.80
C       1.33      14.09      16.72
C       3.39       8.67      18.45
C       1.95      10.05      19.80
C       1.82       8.98      20.67
C       1.55      15.15      15.84
H       3.61       6.64      19.21
H       4.01       8.52      17.57
H       1.46      11.00      20.00
H       1.24       9.06      21.59
C       0.20      14.12      17.55
H       2.42      15.16      15.19
C       0.66      16.22      15.85
H      -0.00      13.30      18.23
C      -0.64      15.23      17.50
H       0.79      17.08      15.19
H      -1.53      15.31      18.12
C       3.17       7.63      19.34
N       2.40       7.78      20.44
N      -0.40      16.27      16.67
