42

C       5.50       3.17       1.84
N       6.90       1.21       3.54
N       7.98       1.86       5.89
N       9.99       3.14       9.26
N      10.76       3.50      11.79
N       7.64       7.30      12.22
N       6.36       6.48       5.39
N       5.33       5.89       2.99
H       7.69       0.72       3.96
H       6.68       0.97       2.58
H       8.28       2.21       6.80
H       7.33       1.07       6.06
Cl       6.51       6.94       9.55
H       9.74       3.19       8.27
H      11.01       3.16       9.35
H      11.03       3.59      12.77
H      10.81       2.59      11.35
H       8.11       7.62      13.06
H       7.05       7.93      11.69
H       5.44       6.89       5.24
H       6.67       6.60       6.35
H       5.01       5.69       2.05
H       5.74       6.81       3.14
O      10.64       4.92      13.99
O       9.39       6.78      14.09
O       5.71       2.00       1.33
O       4.73       4.02       1.22
C       9.24       5.43      12.13
C       8.20       6.26      11.55
C       7.75       5.95      10.25
C       8.33       4.93       9.47
C       9.37       4.15      10.01
C       9.76       5.72      13.46
C       9.78       4.34      11.35
C       7.32       2.87       5.16
C       6.79       2.53       3.90
C       5.97       4.86       3.65
C       6.49       5.17       4.92
C       7.15       4.17       5.67
C       7.58       4.46       6.98
C       7.91       4.70       8.14
C       6.09       3.52       3.12
