22

H       9.24       2.33       2.72
H       9.94      -2.33      -2.72
H      12.13      -0.37       1.06
C      11.86       1.56       2.91
H       7.61       1.73       0.96
H      11.57      -1.73      -0.96
C       7.32      -1.56      -2.91
C      10.81       1.05       1.96
C       8.37      -1.05      -1.96
C       9.51       1.63       1.94
C       9.67      -1.63      -1.94
C      11.14       0.08       1.03
C       8.04      -0.08      -1.03
C      10.23      -0.32       0.03
C       8.95       0.32      -0.03
C       8.61       1.28       0.96
C      10.57      -1.28      -0.96
O      13.03       1.09       2.78
O       6.15      -1.09      -2.78
O      11.48       2.45       3.74
O       7.70      -2.45      -3.74
H       7.05       0.37      -1.06
