16

O      14.70      15.40      21.60
O      10.04      12.51      17.25
C      10.88      13.01      19.41
C      12.73      14.16      21.20
C      12.00      13.71      18.95
C       9.86      12.38      18.51
C      11.61      13.47      21.69
C      12.92      14.28      19.82
C      10.71      12.90      20.81
O      13.51      14.62      23.38
H      11.47      13.38      22.77
H      13.78      14.82      19.42
H       9.84      12.36      21.17
F      12.25      13.86      17.63
C      13.72      14.78      22.14
O       8.90      11.76      19.08
