18

H       7.18       8.84       0.25
H       7.93      10.41       0.27
O       5.58      14.52      -0.17
O       5.84       7.53       0.23
O       3.66       7.50      -0.33
C       4.47      13.90      -0.04
C       4.72       9.60      -0.07
C       4.75       8.12      -0.06
C       4.54      12.41      -0.05
C       5.91      10.39      -0.04
C       3.36      11.64      -0.07
C       5.78      11.79      -0.05
C       3.47      10.26      -0.09
H       2.40      12.14      -0.06
H       6.68      12.41      -0.04
H       2.58       9.63      -0.09
N       7.17       9.82      -0.03
O       3.33      14.45       0.11
