27

N       5.50       6.11      13.47
N       6.31       6.04      14.56
H       4.95       5.23      13.24
O       6.74      14.52      13.54
O       8.97      14.09      13.57
H       5.30      12.60      13.28
H       4.71      10.19      13.38
H       8.91       9.21      13.60
H       9.47      11.64      13.50
H       5.10       8.63      11.28
H       4.83       6.91      10.94
H       3.67       7.81      11.93
H       7.21       7.57      16.80
C       7.76      13.73      13.49
C       7.42      12.27      13.40
C       6.08      11.85      13.34
C       5.76      10.50      13.39
C       6.77       9.53      13.53
C       8.11       9.95      13.54
C       8.43      11.30      13.48
C       6.42       8.11      13.69
C       5.53       7.34      12.92
C       6.89       7.25      14.71
C       4.74       7.69      11.71
C       7.79       7.52      15.87
H       8.30       8.48      15.74
H       8.54       6.73      15.99
