22

C      14.21       2.85       2.71
C      13.96       2.72       5.43
H      14.29       2.87       1.62
H      13.89       2.67       6.52
C      16.32       4.16       2.75
C      11.85       1.39       5.38
H      17.30       3.79       3.08
H      16.33       5.24       2.95
H      16.22       4.00       1.67
H      11.69       0.37       5.00
H      10.89       1.92       5.25
H      12.07       1.34       6.46
C      16.02       4.02       5.83
O      15.89       3.70       7.07
O      16.90       4.81       5.36
C      12.14       1.56       2.30
O      11.03       1.13       2.77
O      12.49       1.51       1.07
C      15.04       3.40       4.88
C      13.11       2.17       3.26
C      15.19       3.48       3.47
C      12.97       2.10       4.67
