48

O       3.32      22.13      13.02
O       1.43      21.06      13.62
O       3.38      21.01      26.54
O       1.48      22.06      27.16
H       2.56      26.70      22.24
H       2.59      22.97      20.11
H       2.51      26.68      17.94
H       1.74      31.07      21.96
H       1.58      28.60      21.97
O       3.76      33.23      20.70
O       1.85      33.28      19.49
H       3.66      28.48      18.19
H       3.55      25.55      23.73
H       1.41      21.09      24.00
H       1.40      22.31      21.85
H       1.41      22.33      18.42
H       3.58      24.14      14.36
H       3.67      25.44      16.47
C       2.40      21.85      13.85
C       2.44      21.85      26.36
C       2.80      32.67      20.08
C       2.53      24.75      21.33
C       2.56      26.15      21.30
C       2.59      26.87      20.10
C       2.56      26.15      18.89
C       2.55      24.74      18.88
C       2.55      24.06      20.11
C       2.17      30.49      21.14
C       2.09      29.10      21.15
C       2.63      28.34      20.09
C       3.21      29.03      19.01
C       3.24      30.42      18.99
C       2.75      31.17      20.06
C       3.05      24.59      23.77
C       3.00      23.91      24.99
C       2.45      22.63      25.08
C       1.89      22.06      23.93
C       1.90      22.75      22.71
C       2.50      24.02      22.61
C       1.90      22.74      17.54
C       1.86      22.01      16.36
C       2.44      22.52      15.18
C       3.09      23.77      15.26
C       3.13      24.50      16.44
C       2.53      24.00      17.61
Br       3.95      31.28      17.45
Br       3.66      24.79      26.53
Br       1.06      20.29      16.48
