20

S      11.23       7.38      12.87
S      14.88       8.93      11.55
H      13.35       5.64      11.05
S      13.04      11.29      13.50
H      12.44      12.50      11.86
C      10.15       9.53      14.19
O      10.09      10.78      14.38
O       9.30       8.65      14.57
C      15.83       6.75      10.14
O      16.86       7.49       9.99
O      15.64       5.58       9.65
C      12.49       9.66      13.06
C      13.58       6.66      11.33
C      11.31       9.02      13.43
C      14.74       7.30      10.97
C      12.76       7.52      12.11
C      13.33       8.80      12.30
O      12.02      12.27      12.72
O      12.85      11.52      14.89
O      14.34      11.45      12.87
