20

H       1.25       7.35       8.70
H      -1.15       3.87       9.55
H       1.22       3.82       9.52
H      -1.13       4.86       6.05
H       1.24       4.90       6.04
H      -1.15       6.59       6.38
H       1.23       6.62       6.43
H      -1.17       3.28       7.89
H       1.20       3.27       7.84
N      -1.24       5.37       8.09
N       1.32       5.35       8.09
H      -1.16       6.21      10.00
H       1.22       6.17      10.02
H      -1.13       7.38       8.67
C      -0.73       6.42       9.01
C       0.82       6.40       9.03
C      -0.74       4.04       8.55
C       0.80       4.03       8.53
C      -0.73       5.64       6.72
C       0.82       5.64       6.72
