18

C       4.29       0.45       2.41
O       2.72       0.97       0.08
C       2.12       0.84       1.19
C       2.89       0.44       2.40
H       4.84      -0.81       5.53
O       7.07       0.86       2.80
H       4.84       0.81       1.53
O       0.86       1.01       1.31
H       1.12       0.00       3.53
C       4.99      -0.00       3.53
C       2.20       0.00       3.53
C       6.49       0.00       3.53
C       4.29      -0.45       4.66
C       2.89      -0.44       4.67
C       2.12      -0.84       5.87
O       2.72      -0.97       6.99
O       7.07      -0.86       4.27
O       0.86      -1.01       5.75
