27

O      14.77      12.58      11.82
O      16.88       2.65      14.43
C      16.94       3.19      15.59
H      19.40      10.64      14.63
O      16.83       2.57      16.70
H      18.10       7.20      17.68
C      16.00      12.66      12.15
H      18.51      12.45      13.14
O      16.83      13.54      11.73
C      17.15       4.66      15.61
H      16.68       4.88      13.51
H      17.66       4.76      17.71
C      18.36      10.65      14.32
O      18.04       8.72      15.63
C      17.79       6.68      16.78
C      17.50       9.64      14.77
H      15.49       8.87      14.81
C      17.86      11.65      13.50
C      16.52      11.64      13.10
H      14.61      10.66      13.29
H      17.14       7.34      13.48
C      16.99       5.40      14.42
C      17.54       5.32      16.78
C      16.15       9.65      14.42
C      15.66      10.64      13.58
C      17.65       7.40      15.58
C      17.24       6.77      14.40
