36

C       5.77      10.81      17.26
C       5.03      11.41      18.29
C       3.64      11.41      18.29
C       5.03      10.21      16.22
C       3.64      10.21      16.23
C       2.90      10.81      17.26
C       1.43      10.81      17.26
C       0.70       9.62      17.26
C       0.70      12.01      17.26
C      -5.77      10.81      17.26
C      -5.03      11.41      16.22
C      -3.64      11.41      16.23
C      -5.03      10.21      18.29
C      -3.64      10.21      18.29
C      -2.90      10.81      17.26
C      -1.43      10.81      17.26
C      -0.70      12.01      17.26
C      -0.70       9.62      17.26
O      -7.83       9.80      17.79
O      -7.83      11.82      16.73
C      -7.27      10.81      17.26
O       7.83      11.82      17.79
C       7.27      10.81      17.26
O       7.83       9.80      16.73
F       5.65       9.65      15.16
F       2.99       9.65      15.18
F       5.65      11.97      19.35
F       2.99      11.97      19.33
F       1.35       8.43      17.27
F      -1.35       8.43      17.24
F       1.35      13.19      17.24
F      -1.35      13.19      17.27
F      -2.99       9.65      19.33
F      -5.65       9.65      19.35
F      -2.99      11.97      15.18
F      -5.65      11.97      15.16
