16

O       3.10       6.42       8.49
C       4.10       6.84      10.59
C       5.50       6.70      10.08
C       2.94       6.38       9.75
O       5.85       6.75       8.91
C       4.80       7.99      12.69
C       5.85       8.73      12.26
C       3.84       7.35      11.82
O       1.89       6.01      10.38
O       7.84       9.89      12.64
H       6.23       6.49      10.90
C       6.85       9.30      13.19
O       6.65       9.16      14.44
H       4.65       7.91      13.77
H       6.01       8.95      11.20
H       2.81       7.27      12.19
