13

C       2.87      -0.94       5.42
C       5.15       1.79       6.34
O       3.58       0.00       6.20
C       2.01      -1.79       6.34
H       2.21      -0.43       4.69
H       3.58      -1.59       4.87
H       4.95       0.43       4.69
H       3.58       1.59       4.87
O       5.16       1.56       7.57
O       5.81       2.69       5.71
O       2.00      -1.56       7.57
O       1.35      -2.69       5.71
C       4.29       0.94       5.42
