28

C      25.54      15.93      16.35
C      25.54      18.96      18.55
H      26.73      16.87      13.66
C      24.83      14.90      17.17
C      24.83      19.99      17.73
H      26.73      18.02      21.24
C      27.37      19.03      15.41
C      27.37      15.86      19.49
N      25.74      15.77      15.03
N      25.75      19.12      19.86
N      26.38      16.89      14.62
N      26.38      18.01      20.28
H      23.96      14.52      16.64
H      23.96      20.38      18.26
H      24.52      15.33      18.13
H      24.52      19.56      16.77
H      27.03      19.55      14.51
H      25.49      14.04      17.37
H      25.49      20.85      17.52
H      27.03      15.34      20.39
H      28.45      18.84      15.30
H      28.45      16.05      19.60
C      26.62      17.76      15.62
H      27.24      19.70      16.27
C      26.62      17.13      19.28
H      27.23      15.19      18.63
C      26.08      17.17      16.77
C      26.08      17.72      18.12
