14

H       5.88       6.34       0.38
H       3.42       4.50      -0.01
O       6.46       5.52      -4.74
O       4.24       5.98      -4.84
C       5.33       5.76      -4.22
C       4.03       5.07       4.60
C       4.07       5.04       3.16
C       4.18       5.07       0.54
C       5.12       5.77      -0.16
C       5.18       5.78      -1.56
C       4.13       5.06       1.94
C       5.26       5.79      -2.78
O       5.14       5.29       5.19
O       2.90       4.86       5.15
