28

C       3.96       4.07       0.01
C       2.71       4.71       0.03
C       2.64       6.10       0.04
C       3.82       6.90       0.03
C       5.06       6.22       0.02
C       5.14       4.83       0.01
C       3.76       8.30       0.04
C       3.76       9.53       0.04
C       3.81      10.93       0.04
C       2.64      11.73       0.04
H       1.80       4.12       0.03
H       6.11       4.33      -0.00
C       2.71      13.12       0.03
C       5.14      13.00       0.02
C       5.06      11.62       0.03
H       1.80      13.72       0.03
C       3.96      13.76       0.02
H       6.10      13.50       0.02
C       4.00       2.58       0.00
Cl       6.51       7.14       0.01
Cl       1.10       6.86       0.06
Cl       6.51      10.70       0.03
Cl       1.10      10.97       0.05
C       4.00      15.25       0.01
O       2.88       1.98       0.00
O       5.15       2.00      -0.00
O       5.16      15.83       0.00
O       2.88      15.85       0.01
