18

O      10.02       2.23      17.67
O      11.44       3.92      18.27
C      10.31       3.33      18.26
S       7.93       2.86      19.51
S       7.12       6.56      21.26
C       4.70       6.00      22.47
O       4.78       7.23      22.82
O       3.76       5.18      22.75
O       9.83       7.26      20.17
O      10.41       6.48      18.19
N       9.84       6.39      19.28
H       5.24       3.41      21.35
C       9.04       5.21      19.56
C       5.96       4.20      21.17
C       9.21       3.93      19.04
C       5.82       5.48      21.67
C       7.15       4.10      20.42
C       7.88       5.31      20.37
