30

C      15.47      19.99      21.58
C      14.72      14.54      14.72
C      14.49      18.97      21.53
H      16.53      16.50      15.16
C      14.80      15.45      15.89
C      13.61      18.85      22.62
C      13.70      19.69      23.72
H      16.69      17.99      17.16
C      15.81      16.42      15.98
C      15.89      17.25      17.09
H      13.22      16.05      18.84
C      14.33      18.07      20.40
H      13.09      14.58      16.87
C      14.97      17.14      18.15
H      15.94      18.75      19.20
C      13.95      16.16      18.05
C      13.87      15.34      16.94
C      15.11      18.04      19.29
O      15.52      14.75      13.75
H      16.31      21.62      22.71
O      13.85      13.61      14.79
H      16.17      20.12      20.75
H      12.84      18.07      22.60
H      13.01      19.59      24.57
O      15.65      22.55      24.83
C      14.77      21.63      24.91
H      13.51      17.36      20.49
O      13.97      21.44      25.90
C      14.67      20.70      23.76
C      15.56      20.83      22.67
