18

C      23.66       8.75      13.08
C      21.80       7.57      11.33
C      22.55       9.47      12.59
C      22.90       6.83      11.79
O      24.31      10.43      14.61
C      21.63       8.89      11.73
O      25.71       8.66      14.24
C      23.81       7.42      12.66
H      23.02       5.80      11.46
H      20.77       9.46      11.38
H      24.67       6.87      13.04
C      24.64       9.33      14.05
O      23.05      11.72      12.34
O      21.01       5.72      10.08
C      20.81       6.94      10.40
O      19.85       7.68      10.00
O      21.38      11.16      13.66
N      22.33      10.90      12.91
