19

C      16.83      11.06       4.80
C      20.03      11.98       3.34
C      16.72      12.35       5.32
C      20.14      10.70       2.81
C      18.83      12.12       4.06
C      18.04      10.95       4.08
C      15.84       9.95       4.95
H      20.79      12.74       3.18
S      18.07      13.39       4.94
S      18.79       9.67       3.20
H      15.68       9.71       6.01
H      16.19       9.05       4.43
H      14.86      10.23       4.55
C      15.63      12.90       6.14
C      21.25      10.17       2.00
O      14.66      12.12       6.42
O      15.75      14.13       6.50
O      21.14       8.95       1.63
O      22.21      10.97       1.74
