13

H      -0.78       7.04      22.62
H      -0.54       5.68      21.54
H      -2.06       6.64      21.43
N      -1.18       4.54      23.90
N      -3.93       4.51      24.19
H      -3.66       3.11      25.71
C      -1.95       5.33      23.12
H      -1.11       3.14      25.42
C      -3.15       3.74      24.97
C      -1.77       3.75      24.82
C      -3.34       5.28      23.27
H      -4.00       5.88      22.64
C      -1.31       6.22      22.11
