66

H      -3.70       6.64       9.91
H      -4.86      -1.31      11.42
H      -7.58       3.61      10.19
H      -6.47      11.29       7.93
H      -2.12       0.29       8.47
H      -9.71       9.68      10.31
H      -8.19       3.73       7.68
H      -6.62       3.88       6.85
H      -9.18       5.41       6.09
H      -7.62       5.57       5.28
H      -7.70       3.12       4.63
H      -9.12       3.99       4.01
H      -9.27       2.95       5.44
H      -3.81       5.42      14.07
H      -4.31       6.60      12.84
H      -1.58       5.19      12.95
H      -2.04       6.43      11.77
H      -2.32       8.11      13.66
H      -0.67       7.46      13.62
H      -1.84       6.87      14.83
H      -3.39       6.30       7.32
H      -4.95       5.89       6.55
H      -3.82       4.07       5.23
H      -3.05       5.64       4.92
H      -2.27       4.46       6.01
H      -6.33       4.24      13.46
H      -7.88       3.89      12.67
H      -9.01       5.62      14.12
H      -8.21       4.38      15.11
H      -7.45       5.97      14.91
C      -4.83       4.94      11.14
C      -4.91       4.84       8.93
C      -6.36       5.41      11.17
C      -4.32       1.34      10.11
C      -6.97       8.88       9.69
C      -6.73       4.30      10.12
C      -4.54       5.96       9.97
C      -5.22       3.81      10.09
C      -6.05       6.44      10.00
C      -4.77       2.48      10.11
C      -6.50       7.78       9.90
C      -4.08      -1.13      10.69
C      -7.41      11.07       8.43
C      -2.67      -0.31       9.19
C      -9.07      10.25       9.65
C      -3.74       0.06      10.02
C      -7.55       4.42       7.09
C      -8.26       4.86       5.82
C      -8.61       3.67       4.93
C      -3.65       5.74      13.03
C      -2.18       6.10      12.82
C      -1.73       7.20      13.78
C      -7.71      10.03       9.33
C      -3.97       5.48       6.86
C      -3.23       4.87       5.68
C      -7.30       4.68      13.19
C      -8.04       5.20      14.40
C      -6.44       5.31       8.96
N      -2.38      -1.61       9.36
N      -9.53      11.30       8.96
N      -3.26      -2.12      10.30
N      -8.51      11.81       8.21
O      -7.25       5.59       7.88
O      -4.03       4.61      12.20
O      -4.18       4.43       7.83
O      -7.09       5.78      12.28
