12

O       7.61       8.88      25.22
O       9.07       6.86      15.17
C       8.66       9.22      23.18
C       8.80       9.02      21.98
C       8.92       8.84      20.66
O      10.14       8.84      14.83
C       9.11       8.54      18.11
C       9.21       8.37      16.90
C       9.00       8.70      19.44
C       8.34       9.67      24.51
C       9.47       8.00      15.54
O       8.76      10.81      24.85
