36

H       5.86       4.76      16.43
H       5.89       2.26      16.40
H      10.14       4.82      16.75
H       5.91      -4.61      16.73
S      10.82       2.06      16.82
S       5.25      -1.83      16.75
H      10.18      -2.07      16.37
H      10.20      -4.57      16.41
O       6.85       7.00      16.69
O       9.11       7.02      16.49
O       9.19      -6.81      16.73
O       6.94      -6.81      16.45
H      10.02       0.41      17.91
H       6.03      -0.21      17.88
C       7.98       6.44      16.59
O      10.62       1.15      18.15
O      11.81       3.03      17.18
O      10.98       1.19      15.69
O       5.41      -0.95      18.09
O       5.13      -0.94      15.62
O       4.24      -2.80      17.06
C       8.07      -6.24      16.58
C       7.99       4.94      16.59
C       6.80       4.21      16.50
C       6.82       2.83      16.49
C       8.04       2.13      16.59
C       9.24       2.87      16.70
C       9.21       4.26      16.68
C       8.04       0.71      16.61
C       8.04      -0.51      16.60
C       8.03      -1.92      16.56
C       6.83      -2.66      16.66
C       6.84      -4.05      16.65
C       8.06      -4.74      16.57
C       9.26      -4.02      16.47
C       9.25      -2.63      16.46
