36

O      10.01       6.07       5.40
O      11.25       7.89       5.53
O       6.21      11.47      -4.67
O       5.26       9.53      -5.14
H       6.52       9.80       4.46
H       9.81       7.38      -4.74
H       6.89       9.94       1.99
H      10.18       7.61      -2.27
C       8.02       8.65      -6.27
C       8.03       8.53       6.29
C       9.62       8.09       2.84
C       7.48       9.66      -2.64
C       9.36       7.95       4.21
C       7.28       9.51      -4.01
C       8.26       8.57       4.80
C       8.12       8.70      -4.77
C       7.38       9.30       4.00
C       9.16       8.01      -4.13
C       7.59       9.40       2.63
C       9.37       8.15      -2.77
C       8.72       8.81       2.02
C       8.53       8.98      -1.99
C       8.82       8.89       0.62
C       8.69       9.00      -0.59
N      10.83       7.50       2.25
N       6.57      10.49      -1.84
N      10.30       7.23       5.10
N       6.16      10.23      -4.66
O       8.34       7.56      -6.83
O       8.30       9.62       6.90
O       7.69       9.73      -6.84
O       7.58       7.46       6.78
O      11.27       8.03       1.23
O      11.32       6.51       2.82
O       7.08      11.25      -1.00
O       5.35      10.35      -2.05
