13

C       8.15       1.33       5.21
H       9.72       0.32       8.04
O       7.34       2.20       8.14
C       8.62       2.12       8.25
O       6.29       2.12       3.93
C       6.66       1.46       4.94
O       9.28       2.82       9.07
H       8.65       0.96       4.31
C       9.34       1.10       7.37
O       5.83       0.90       5.74
N       8.44       0.48       6.38
H       8.54       2.35       5.36
H      10.20       1.60       6.89
