14

C      -0.28       6.11       7.41
C      -0.14       7.06       8.56
C      -1.73       7.03       8.66
H      -2.35       4.14       4.99
H       0.17       4.12       4.89
H       0.41       6.67       9.43
N      -2.44       5.42       6.62
N       0.41       5.42       6.51
H       0.29       8.03       8.27
H      -2.14       6.56       9.57
H      -2.24       7.98       8.49
C      -1.68       6.10       7.47
C      -1.75       4.71       5.69
C      -0.36       4.70       5.64
