38

H       7.21      -4.04      12.15
H       7.49      -2.00      10.77
C       5.02      -4.57      13.93
C       3.61      -5.10      13.60
C       6.00      -5.74      13.87
C       3.29      -6.41      13.28
C       1.97      -6.74      12.97
H       4.50      -1.44      18.34
H       3.04      -1.17      16.37
C       3.16      -2.70      13.93
C       2.63      -4.11      13.60
C       1.98      -1.72      13.87
C       1.31      -4.44      13.28
C       0.98      -5.76      12.97
H       6.54      -4.69      16.38
H       6.27      -3.22      18.35
H       3.69      -0.51      12.16
H       5.74      -0.23      10.77
O       6.34      -6.16      12.72
H       4.05      -7.19      13.26
H       1.72      -7.78      12.71
O       1.44      -1.38      14.97
H       0.54      -3.67      13.26
O       6.34      -6.28      14.97
O       1.57      -1.38      12.72
H      -0.05      -6.00      12.71
C       5.29      -3.43      12.92
C       6.43      -3.28      12.14
C       6.59      -2.13      11.36
C       3.91      -2.81      15.28
C       3.78      -1.97      16.38
C       4.61      -2.12      17.49
C       4.91      -3.81      15.28
C       5.75      -3.94      16.38
C       5.60      -3.10      17.49
C       4.29      -2.44      12.92
C       4.45      -1.29      12.14
C       5.60      -1.14      11.36
