14

H       9.27       6.87       9.27
H       9.19       8.19      10.47
C      11.19       6.29      11.35
C       9.80       6.25      11.32
C       9.70       7.26      10.20
C      11.29       7.31      10.24
H      11.72       8.27      10.55
H      11.79       6.95       9.33
C       9.79       4.75      12.98
C      11.21       4.79      13.01
F      11.84       4.02      13.89
F       9.16       3.95      13.83
N       9.06       5.49      12.14
N      11.93       5.56      12.20
