90

H       1.02      19.47       6.51
H       1.15      21.46       5.10
H       0.05      25.82       3.15
H       1.15      27.22      -6.35
H       1.03      27.42      -3.89
H       2.31      27.89      -2.33
H       2.44      27.70       0.10
H       1.35      27.21       2.04
H       0.97      31.51      -6.70
H       1.11      31.72      -4.27
H      -0.00      31.21       0.47
H       0.19      38.68       6.49
H       0.21      36.46       5.44
H       1.78      35.00       5.05
H       2.09      33.02       3.66
H       1.10      31.50       2.25
H       0.58      36.84      10.36
H       0.78      34.64       9.31
H      -0.25      30.74       6.45
H       1.08      21.92      10.04
H       0.97      23.94       8.63
H       2.28      25.06       7.47
H       2.41      27.27       6.43
H       1.14      29.17       5.86
H       1.20      31.58       8.94
H       1.63      23.23       2.67
H       1.61      32.94      -1.53
C       1.01      19.31       9.18
C       0.32      39.24       9.18
C       1.02      29.27      -8.17
C       1.03      20.45       6.97
C       1.07      21.59       6.17
C       0.50      24.39       4.68
C       0.57      25.66       4.09
C       1.11      28.21      -5.88
C       1.06      28.33      -4.50
C       1.77      28.62      -1.72
C       1.85      28.50      -0.33
C       1.04      20.56       8.36
C       1.04      22.87       6.74
C       1.08      24.13       5.95
C       1.23      26.73       4.70
C       1.25      28.04       4.03
C       1.30      28.12       2.63
C       1.01      30.61      -6.08
C       1.05      30.73      -4.70
C       0.48      30.61      -1.52
C       0.53      30.48      -0.13
C       0.29      37.79       7.11
C       0.32      36.53       6.52
C       1.31      34.07       5.35
C       1.49      32.94       4.56
C       1.05      29.35      -6.68
C       1.05      29.60      -3.87
C       1.08      29.65      -2.39
C       1.21      29.44       0.50
C       1.24      29.36       1.97
C       1.15      30.53       2.74
C       0.51      36.75       9.28
C       0.59      35.50       8.68
C       0.08      32.80       6.95
C       0.23      31.67       6.14
C       1.06      21.83       8.95
C       1.02      22.96       8.15
C       1.75      25.23       6.53
C       1.84      26.48       5.94
C       0.37      37.90       8.50
C       0.48      35.36       7.29
C       0.60      34.06       6.58
C       0.94      31.71       4.94
C       1.11      30.48       4.14
C       1.17      29.23       4.77
S      -0.76      32.43       8.48
S      -0.34      23.22       3.62
S      -0.36      32.12      -2.01
O       1.99      28.66      -8.75
O       1.98      19.11      10.00
O       1.28      40.05       8.94
O       0.03      29.84      -8.74
O      -0.68      39.44       9.94
O       0.02      18.53       8.98
O       0.37      31.93       9.44
O      -1.39      33.57       9.08
O      -1.65      31.28       8.22
O       0.79      22.62       2.73
O      -0.96      22.14       4.33
O      -1.23      23.99       2.74
O       0.77      33.19      -2.09
O      -0.99      32.03      -3.29
O      -1.24      32.50      -0.90
