32

H       6.46      23.36       9.09
H       5.10      18.78       7.94
H       3.82      22.32       9.30
H       7.74      19.82       7.74
H       7.45      20.99      10.31
H       4.11      21.14       6.72
N       7.42      24.35       1.94
N       2.69      20.04      15.13
N       8.56      24.87       2.51
N       1.63      19.46      14.49
H       5.88      23.06       2.62
H       4.69      20.50      14.59
H       9.46      24.70       4.43
H       1.34      18.66      12.54
C       7.53      23.59       4.06
C       3.36      19.53      13.04
C       4.70      21.77       8.93
C       6.87      20.36       8.10
C       6.80      23.59       2.85
C       3.73      20.08      14.29
C       6.15      22.33       8.85
C       5.41      19.80       8.19
C       7.19      22.92       5.25
C       4.09      19.62      11.83
C       4.85      21.10       7.53
C       6.71      21.03       9.50
C       6.31      21.68       7.41
C       5.25      20.45       9.63
C       6.82      22.34       6.26
C       4.66      19.90      10.80
C       8.63      24.42       3.78
C       2.02      19.14      13.24
