13

O       7.59       2.51      13.59
C      10.58       3.31      11.07
C       9.78       1.92      12.81
C      10.18       4.48      10.19
O       9.50       3.01      11.94
C       8.57       1.68      13.69
H      10.82       2.45      10.42
H      10.64       2.15      13.45
O      11.09       4.89       9.43
O       8.66       0.69      14.45
H      11.48       3.57      11.65
H      10.00       1.01      12.22
O       8.98       4.91      10.28
