26

H      15.10       4.72       1.79
H      15.63       4.23       0.17
H      14.07       2.50       0.20
H      13.51       3.03       1.81
H      13.06       3.48      -1.87
H      11.73       4.64      -1.77
H      14.57       5.26      -1.90
O      16.19       6.68      -0.63
H      13.23       6.41       2.03
H      12.49       7.13       0.61
H      10.91       5.41       0.54
H      11.62       4.72       1.99
O      15.04       7.88       0.94
H      13.24       6.40      -1.72
O      10.38       2.82       0.92
O      11.62       1.74      -0.64
C      15.20       6.88       0.16
C      11.38       2.72       0.14
C      14.75       4.51       0.77
C      13.71       3.37       0.78
C      12.38       3.87       0.15
C      12.67       4.33      -1.30
C      13.69       5.50      -1.28
C      14.13       5.80       0.17
C      12.91       6.19       1.01
C      11.86       5.06       0.98
