26

C      22.48      13.95      18.44
C      21.46      12.79      18.47
C      20.54      12.90      19.71
C      19.82      14.27      19.65
C      20.85      15.43      19.65
C      22.28      14.86      19.69
C      22.45      13.99      20.95
C      21.41      12.85      20.97
O      24.34      15.83      20.41
O      23.12      16.95      18.85
O      18.62      11.85      18.77
O      19.63      10.85      20.55
H      23.51      13.57      18.44
H      22.36      14.57      17.54
H      20.83      12.80      17.57
H      21.98      11.82      18.49
H      19.19      14.29      18.75
H      19.14      14.35      20.51
H      20.74      16.05      18.75
H      20.70      16.08      20.51
H      23.48      13.60      20.98
H      22.35      14.64      21.84
H      20.77      12.92      21.86
H      21.91      11.87      21.03
C      23.32      15.97      19.65
C      19.52      11.77      19.68
