26

C      10.28      13.76       3.01
C      10.28      14.81       1.96
C       9.43      14.69       0.85
C      11.12      15.93       2.07
C       9.44      15.68      -0.14
C      11.12      16.91       1.09
C      10.28      16.80      -0.04
C      10.28      17.84      -1.07
C       9.16      18.49      -1.63
C      11.39      18.39      -1.73
H       8.79      13.82       0.76
C       7.71      18.36      -1.29
C      12.84      18.05      -1.60
H      11.76      16.01       2.95
H       8.80      15.57      -1.01
H      11.76      17.78       1.19
N       9.60      19.38      -2.55
H       7.11      19.08      -1.84
N      10.96      19.31      -2.62
H      13.45      18.60      -2.32
H       7.55      18.54      -0.22
H      13.00      16.98      -1.77
H       7.33      17.36      -1.51
O       9.41      12.82       2.92
H      13.23      18.28      -0.59
O      11.14      13.86       3.95
