25

C      13.56       5.64      18.89
C      13.04       4.43      19.38
H      11.51       9.13      17.01
H       9.89       4.73      18.08
H      12.56       1.72      20.66
H       9.39       5.59      15.74
C      13.49       2.27      20.75
C       9.80       6.59      15.89
C      10.72       7.03      16.85
N      10.14       8.71      15.45
H      11.24       3.21      19.45
H      13.24       7.40      17.71
N      15.57       2.62      21.34
H      14.59       5.91      19.11
H      16.96       4.29      20.28
N      14.52       1.74      21.43
N       9.47       7.58      15.04
C      10.88       8.38      16.54
C      13.85       3.52      20.18
O      16.06       4.68      20.32
C      11.69       4.13      19.07
C      10.92       4.99      18.30
C      11.46       6.19      17.79
C      15.19       3.66      20.59
C      12.79       6.50      18.11
