30

O       5.24       6.05      10.48
H       6.04       7.18      18.84
H       6.61       7.77      15.37
O       5.33       6.32      23.56
O       4.94       4.09      23.48
H       2.86       3.70      22.52
H       3.14       4.00      18.84
H       6.29       6.94      21.32
C       4.92       7.14      11.04
C       4.85       5.34      21.47
C       3.96       4.50      20.77
C       3.84       4.64      19.38
C       3.66       6.56      13.17
C       5.06       5.24      22.95
C       3.59       6.39      14.56
C       4.81       7.09      12.54
C       3.06       3.52      21.45
C       4.70       6.80      15.35
C       5.80       7.42      14.73
C       5.86       7.54      13.35
C       5.47       6.44      19.39
C       5.60       6.30      20.76
C       4.56       5.62      18.70
Br       2.01       5.74      15.35
Br       2.19       6.12      12.05
Br       7.43       8.29      12.59
N       4.86       6.69      16.75
N       4.34       5.69      17.30
O       4.73       8.26      10.47
O       2.55       2.58      20.85
