39

O       5.16       1.32       1.35
O       2.88       1.35       1.26
O       1.53       6.35       6.84
O       3.49       8.60       3.85
O       5.10       9.40       5.11
H       4.11       6.47       3.14
H       2.09       4.26       5.41
H       1.91       5.32       4.01
H       2.25       7.24       5.24
H       5.73       3.93       5.44
H       4.20       3.34       6.10
H       5.78       5.66       7.01
H       5.68       5.76       3.57
H       5.88       7.19       5.42
H       4.34       5.00       7.76
H       2.52       4.88       7.97
H       0.87       4.48       7.49
H       0.03       6.37       8.99
H       0.93       5.13       9.90
H       1.71       6.69       9.47
C       4.10       9.42       9.33
C       4.69       6.03       3.96
C       2.53       5.13       4.90
C       2.53       6.36       5.83
C       4.08       8.40       8.30
C       3.97       4.76       4.48
C       4.84       7.07       5.08
C       4.00       6.62       6.33
C       4.75       5.35       6.80
C       4.72       4.24       5.73
C       4.03       7.61       7.39
C       3.97       3.73       3.45
C       3.98       2.85       2.62
C       4.01       1.76       1.66
C       1.52       5.31       7.83
C       1.02       5.91       9.13
N       4.45       8.47       4.63
O       5.24       9.78       9.75
O       2.96       9.87       9.68
