12

O       8.05       9.21       7.42
O       5.83      19.59       7.41
C       6.95      19.04       7.66
C       6.95       9.78       7.68
O       8.05      19.61       7.92
O       5.83       9.22       7.93
C       6.96      17.60       7.67
C       6.96      11.22       7.68
C       6.98      16.37       7.67
C       6.98      12.45       7.67
C       6.98      15.03       7.67
C       6.98      13.79       7.67
