38

H      10.53       5.74       2.27
H       0.05       7.31      -2.27
H       0.65       7.35       0.17
H       9.92       5.71      -0.17
H       4.56       6.56       2.69
H       6.01       6.50      -2.69
C       4.37       6.64       1.62
C       6.20       6.42      -1.62
C       3.08       6.84       1.21
C       7.49       6.21      -1.21
C       1.62       6.76      -4.35
C       8.95       6.29       4.35
C       2.01       6.72      -2.89
C       8.56       6.33       2.89
C       1.40       7.12      -0.59
C       9.18       5.94       0.59
C       1.06       7.09      -1.93
C       9.52       5.96       1.93
C       3.32       6.38      -2.50
C       7.26       6.68       2.50
C       3.74       6.57      -1.14
C       6.83       6.49       1.14
C       2.73       6.87      -0.19
C       7.85       6.19       0.19
C       5.13       6.50      -0.70
C       5.44       6.56       0.70
C       2.05       7.00       2.19
C       8.52       6.06      -2.18
C       6.43       7.38       3.44
C       4.14       5.67      -3.44
N       1.19       7.12       2.97
N       9.38       5.93      -2.97
N       5.76       8.08       4.09
N       4.81       4.97      -4.09
O       0.39       6.81      -4.63
O      10.18       6.25       4.63
O       2.60       6.79      -5.16
O       7.97       6.26       5.16
