26

O       2.53       4.65       5.83
O       1.16       5.72       7.28
O      -1.48       8.48       1.42
H      -2.41       7.05       4.38
H       2.51       6.04      -0.15
H      -0.89       6.24       6.20
H      -1.10       5.78       0.34
H       0.11       6.17      -0.79
H       4.66       6.55       3.83
H       3.68       5.88       5.01
C      -1.84       7.33       1.80
C       1.56       5.46       6.07
C       0.80       6.10       1.15
C       2.15       6.13       0.87
C       3.08       6.30       1.90
C       2.74       6.29       3.27
C       1.35       6.17       3.59
C       0.38       6.29       2.52
C      -0.95       6.68       2.84
C      -1.39       6.72       4.15
C      -0.52       6.34       5.18
C       0.82       6.06       4.93
N      -0.11       5.85       0.14
N       3.72       6.52       4.23
Cl       4.75       6.48       1.45
O      -2.91       6.71       1.43
