48

H      10.43       4.46       5.15
H      14.37       9.87       5.15
C      11.13       3.86       7.13
C      13.68      10.47       7.13
C      11.75       4.30       8.31
C      13.06      10.02       8.31
C      12.24       5.60       8.40
C      12.57       8.72       8.40
H      10.29       2.55       5.06
H      14.52      11.77       5.06
C      12.11       6.49       7.32
C      12.69       7.84       7.32
H       9.72      -2.55       6.79
H      15.09      16.87       6.79
C      11.44       6.05       6.17
C      13.37       8.28       6.17
H      10.10      -0.24       7.55
H      14.70      14.56       7.55
C       9.82      -1.75       6.07
C      14.98      16.07       6.07
C      10.96       4.75       6.07
C      13.85       9.57       6.07
H      10.11       0.97       3.40
H      14.70      13.35       3.40
C      10.02      -0.44       6.49
C      14.79      14.77       6.49
N       9.74      -2.10       4.77
N      15.07      16.42       4.77
H       9.76      -1.43       2.80
H      15.04      15.76       2.80
C      10.14       0.58       5.54
C      14.66      13.75       5.54
N      10.38       1.91       5.85
N      14.43      12.42       5.85
H      11.87       3.59       9.13
H      12.94      10.73       9.13
C      10.04       0.21       4.18
C      14.77      14.11       4.18
H      12.78       5.93       9.30
H      12.03       8.39       9.30
C       9.85      -1.12       3.84
C      14.96      15.44       3.84
H      11.28       6.75       5.36
H      13.53       7.57       5.36
C      10.73       2.42       7.09
C      14.08      11.91       7.09
O      10.77       1.72       8.11
O      14.04      12.60       8.11
