26

C       6.15       4.40       7.33
H       8.50       6.75      11.41
C       6.42       4.68       4.77
C       7.47       6.56      13.22
H       8.03       7.27      13.82
C       5.74       4.01       9.70
C       5.92       4.11       5.92
C       5.10       3.08       4.11
H       5.20       3.46      10.47
N       6.46       5.78      13.65
H       5.21       4.35      12.64
C       6.79       5.40      11.45
N       7.69       6.34      11.92
H       4.79       2.91       8.14
C       6.04       5.04      12.56
H       7.58       5.98       6.92
N       5.08       3.09       5.47
C       5.51       3.70       8.36
H       7.99       6.54       9.26
C       7.05       5.43       7.69
N       5.91       4.03       3.67
C       7.29       5.74       9.02
H       4.50       2.50       6.05
H       7.11       5.51       4.66
H       4.54       2.38       3.50
C       6.63       5.04      10.06
