40

H       1.93       0.84       5.48
H       2.16       3.01       9.23
H       2.16      -3.01       7.71
H       1.93      -0.85      11.45
H       0.30       4.05       3.88
H       3.79       6.00       7.26
H       3.79      -6.00       9.68
H       0.30      -4.05      13.06
C       2.04      -5.52      11.65
C       2.05       5.52       5.28
C       2.05       4.21       6.04
C       1.95       2.98       5.35
C       1.98       1.77       6.05
C       2.05       1.75       7.46
C       2.11       2.98       8.14
C       2.14       4.19       7.45
C       2.04       0.53       8.16
C       2.05      -0.53       8.77
C       2.04      -1.75       9.48
C       2.11      -2.98       8.80
C       2.14      -4.19       9.49
C       2.04      -4.21      10.90
C       1.95      -2.98      11.58
C       1.98      -1.77      10.88
C       1.85       2.87       3.86
C       2.24       5.43       8.29
C       2.24      -5.43       8.65
C       1.85      -2.87      13.08
O       1.07      -6.33      11.45
O       3.01      -5.75      12.46
O       1.08       6.32       5.49
O       3.02       5.74       4.48
O       0.98       3.72       3.26
O       2.54       2.09       3.23
O       3.11       6.37       7.86
O       1.56       5.58       9.27
O       3.11      -6.37       9.08
O       1.56      -5.58       7.66
O       0.98      -3.71      13.68
O       2.53      -2.09      13.70
