26

H       1.30      26.35      15.58
H       1.30      22.88      12.84
H       2.81      22.50      17.54
H       2.83      24.73      16.43
H       2.81      26.73      10.87
H       2.83      24.50      11.99
O       2.90      29.19      10.90
O       1.02      29.86      11.97
O       2.90      20.04      17.52
O       1.02      19.37      16.45
C       1.97      29.04      11.77
C       1.97      20.19      16.65
C       1.99      27.77      12.55
C       1.99      21.45      15.86
C       1.57      27.65      13.89
C       1.63      26.42      14.54
C       1.57      21.58      14.53
C       1.63      22.81      13.88
C       2.46      22.61      16.52
C       2.47      23.85      15.89
C       2.46      26.62      11.90
C       2.47      25.38      12.52
C       2.05      25.26      13.86
C       2.05      23.96      14.55
Br       0.97      29.12      14.93
Br       0.97      20.10      13.49
