16

F      28.11      15.89       8.65
F      27.53      16.23      14.06
O      29.74      14.95      14.32
O      30.88      14.30      12.46
C      28.84      15.47      12.19
C      26.80      16.65      10.52
C      28.91      15.43      10.79
C      26.73      16.69      11.93
C      27.92      16.00       9.98
C      27.72      16.12      12.74
O      25.90      17.17       8.40
C      29.90      14.86      13.06
O      24.76      17.83      10.25
C      25.74      17.27       9.66
F      29.93      14.84      10.14
F      25.71      17.28      12.57
