40

F       7.01       7.55      10.80
H       7.58      11.01      14.14
H       8.57      11.84      16.26
H       4.95      10.77      18.35
H      11.14      11.47      20.24
H       2.58      11.74      16.88
H       2.66      11.56      15.12
H       1.47      10.63      16.05
H       3.39       9.16      15.40
H       3.31       9.34      17.16
H       3.62       5.17      14.61
H       3.95       6.86      15.03
H       2.33       6.18      15.30
H       2.33       7.62      13.25
H       7.53      10.99      22.56
H       2.01       5.94      12.81
C       5.84       7.06      11.24
C       8.99      11.27      20.88
C       7.56      11.43      16.25
C       6.86      11.28      17.46
C       5.52      10.83      17.42
C       4.94      10.37      16.24
C       5.74      10.35      15.06
C       7.01      10.97      15.07
C       7.55      11.42      18.69
C       5.38       9.54      13.96
C       5.24       8.64      13.14
C       8.21      11.36      19.71
C       3.94       6.66      12.26
C       5.04       7.56      12.28
C       3.52       9.88      16.22
C       2.50      11.02      16.06
C       2.78       6.62      13.21
C       3.20       6.18      14.62
C      10.39      11.35      21.02
C       8.55      11.12      22.21
N       5.31       6.00      10.63
N       4.11       5.75      11.28
N      10.75      11.27      22.31
N       9.59      11.12      23.06
