26

O      25.07      25.79      18.39
O      22.84      26.05      17.98
O      22.93      16.62      11.83
O      25.17      16.87      11.49
H      21.94      24.46      16.35
H      21.97      22.44      14.90
H      26.05      21.69      16.05
H      26.02      23.74      17.46
H      26.07      20.97      13.86
H      26.09      18.93      12.44
H      22.00      18.15      13.49
H      21.98      20.15      14.97
C      23.96      25.44      17.85
C      23.98      24.22      16.99
C      22.83      23.84      16.27
C      22.85      22.71      15.47
C      24.01      21.92      15.37
C      25.15      22.30      16.09
C      25.14      23.44      16.89
C      24.02      20.71      14.52
C      25.18      20.34      13.80
C      25.19      19.21      13.00
C      24.04      18.42      12.87
C      22.88      18.78      13.58
C      22.88      19.90      14.39
C      24.05      17.21      12.00
