16

C       7.45       7.82      18.28
S       7.53       5.06      18.29
S       7.35       4.31      22.42
O       7.35       1.72      23.69
C       7.43       1.54      22.42
O       7.50       0.44      21.80
C       7.38       6.47      20.47
O       7.53       7.65      17.01
C       7.44       6.60      19.09
C       7.50       2.90      20.23
O       7.37       8.93      18.91
C       7.48       4.25      19.81
C       7.40       5.12      20.90
F       7.30       7.49      21.34
C       7.43       2.77      21.61
F       7.57       1.88      19.37
