18

H       3.25       0.70       3.31
C       2.31      -3.22       7.75
C       2.03       3.24       3.88
C       1.75      -0.73       7.37
C       2.72       0.81       4.25
C       2.33      -1.93       6.99
C       2.10       1.98       4.64
C       2.54      -0.19       5.24
C       1.85       0.27       6.37
S       3.01      -1.85       5.42
S       1.34       1.89       6.21
N       1.09      -0.52       8.64
O       1.34      -4.00       7.49
O       3.28      -3.45       8.53
O       1.05       4.02       4.13
O       2.96       3.45       3.02
O       0.48       0.56       8.77
O       1.17      -1.42       9.49
