16

C      15.13       3.32       4.90
C      13.23       2.12       3.20
C      15.27       3.40       3.50
C      13.08       2.03       4.59
C      14.32       2.81       2.66
C      14.02       2.62       5.41
C      12.23       1.50       2.27
C      16.09       3.91       5.89
O      15.81       3.77       7.13
O      11.25       0.88       2.81
O      12.45       1.63       1.02
O      17.12       4.51       5.43
H      12.22       1.50       5.00
H      14.43       2.88       1.58
H      13.92       2.56       6.50
Cl      16.56       4.22       2.69
