22

H      -0.23       7.50       4.55
H       0.06      12.48       4.31
H       3.92      11.14       6.86
H       3.89       8.63       6.78
C       1.98       7.04       5.96
C       2.05      12.82       6.04
C       1.98       8.53       5.83
C       0.92       9.24       5.20
C       3.07       9.21       6.36
C      -0.15       8.59       4.53
C      -1.09       9.31       3.84
C       2.04      11.34       5.85
C       3.09      10.61       6.39
C       0.97      10.68       5.18
C      -0.00      11.40       4.43
C      -1.00      10.72       3.78
O       3.10       6.45       5.79
O       3.17      13.43       5.94
O       0.93      13.37       6.32
O       0.89       6.47       6.28
F      -2.10       8.69       3.19
F      -1.93      11.40       3.04
