16

C      26.20      15.82      12.96
O      28.42      13.47      14.68
C      27.27      15.12      13.50
O      26.14      13.39      14.59
F      24.91      15.46      13.10
C      26.59      16.96      12.23
C      27.99      17.11      12.24
C      28.38      18.25      11.51
C      27.31      18.95      10.97
F      29.67      18.61      11.38
C      27.27      13.90      14.32
S      28.80      15.87      13.12
S      25.78      18.19      11.35
O      26.16      20.60       9.79
O      28.45      20.68       9.89
C      27.31      20.17      10.16
