24

O       6.57       6.94       2.97
O       7.72       6.28       1.11
H       6.65       5.86      -1.82
H       4.42       9.21       3.28
O       1.58       9.82      -1.11
O       2.72       9.16      -2.97
H       5.76       8.43      -3.28
H       1.75       8.69       1.82
H       2.64      10.24       1.82
H       4.87       6.89      -3.28
H       3.53       7.66       3.28
H       7.55       7.41      -1.82
C       5.73       7.43      -0.55
C       6.55       6.95      -1.73
C       4.56       8.10       1.36
C       3.86       8.50       2.65
C       4.74       8.00      -1.36
C       5.43       7.60      -2.65
C       3.57       8.67       0.55
C       2.75       9.15       1.73
C       6.74       6.84       1.71
C       5.69       7.45       0.85
C       2.56       9.26      -1.71
C       3.60       8.65      -0.85
