28

C      -0.37       1.67      13.89
C       0.79      -4.97      14.50
H      -0.24      -5.21      14.69
N       1.80      -5.81      14.92
H       3.51      -3.56      13.36
H       1.09       0.35      11.85
C       2.71      -4.15      13.79
H      -1.68      -3.06      15.87
C       1.33      -3.87      13.83
N       2.97      -5.29      14.45
H      -2.36      -0.67      15.94
H      -0.82      -0.27      16.76
C      -0.57      -0.70      14.59
C      -0.11       0.26      13.68
C       0.69      -0.28      12.64
C       1.06      -1.63      12.64
C       0.68      -2.58      13.60
C      -0.20      -2.04      14.55
C      -0.84      -2.36      15.89
C      -1.27      -0.84      15.94
F       1.91      -2.04      11.64
N      -1.07       3.53      14.99
N      -0.38       3.91      13.87
H      -1.55       1.67      15.82
C      -1.07       2.20      15.00
H       0.60       2.91      12.26
C       0.04       2.82      13.19
H      -0.14      -2.67      16.68
