48

H      14.45      11.81      17.82
C      11.01       2.34      19.80
C      13.81      11.99      19.80
O      11.21       1.61      20.77
C      11.33       3.79      19.86
O      13.61      12.72      20.77
C      13.49      10.54      19.86
C      11.00       4.71      18.85
C      13.82       9.62      18.85
H       9.62      -1.43      15.56
H      15.20      15.76      15.56
C      11.42       6.03      18.96
C      13.40       8.30      18.96
H      10.05       0.95      16.15
H      14.77      13.38      16.15
C      12.16       6.47      20.07
C      12.66       7.86      20.07
H      10.38      -0.31      20.28
H      14.44      14.64      20.28
C      12.45       5.56      21.10
C      12.37       8.77      21.10
H       9.88      -2.60      19.53
H      14.94      16.93      19.53
C       9.79      -1.13      16.60
C      15.03      15.46      16.60
C      12.04       4.24      20.99
C      12.78      10.09      20.99
H      10.42       4.42      17.98
H      14.41       9.91      17.98
C      10.04       0.19      16.93
C      14.78      14.14      16.93
N       9.74      -2.12      17.51
N      15.08      16.45      17.51
H      11.15       6.75      18.19
H      13.67       7.58      18.19
C      10.26       0.54      18.28
C      14.56      13.79      18.28
N      10.53       1.86      18.59
N      14.30      12.47      18.59
H      13.05       5.89      21.95
H      11.77       8.44      21.95
C      10.20      -0.50      19.23
C      14.62      14.83      19.23
H      12.30       3.50      21.76
H      12.53      10.83      21.76
C       9.94      -1.79      18.81
C      14.88      16.12      18.81
H      10.37       2.52      17.82
