16

O      25.47      11.60      18.99
O      24.29      12.19      17.12
C      24.46      12.10      18.38
S      22.00      13.36      18.41
C      23.26      12.64      20.59
C      23.37      12.64      19.21
S      21.29      13.55      22.52
C      21.25      13.68      19.93
C      22.05      13.23      21.00
C      20.05      14.29      20.33
C      19.93      14.28      21.71
C      18.82      14.83      22.50
O      17.90      15.43      21.84
H      24.04      12.22      21.24
H      19.28      14.71      19.69
O      18.88      14.66      23.76
