22

H       1.14      -4.98       9.66
H      -3.37      -5.84      11.15
H      -4.37      -7.26      12.88
H      -2.93      -8.74      14.30
H      -0.48      -8.66      14.06
H       2.59      -6.34      11.19
O       2.80      -8.55      12.80
O       1.58      -7.66      14.50
C      -1.50      -4.94       9.51
C      -2.73      -6.45      11.78
C      -3.29      -7.26      12.75
C      -2.48      -8.08      13.55
C      -1.11      -8.04      13.42
C      -0.49      -7.20      12.45
C      -1.32      -6.42      11.57
C      -0.69      -5.63      10.56
C       0.69      -5.59      10.44
C       1.50      -6.36      11.30
C       0.93      -7.14      12.29
C       1.83      -7.84      13.26
O      -2.51      -5.58       9.07
O      -1.13      -3.78       9.09
