45

H      11.15       2.11       8.15
H      11.66       3.95      14.03
H      10.16       0.12      12.67
C       9.89       7.87       6.60
H      13.65       9.22       4.69
C       9.82       6.18      10.11
C      10.93       6.75      11.02
C      10.36       7.57      12.17
C      13.28       2.82       5.79
N      11.54       2.01      14.88
N      11.06       0.80      14.46
N      14.41       8.80       2.75
H       8.85       7.50       6.61
H      10.35       7.62       5.63
H       9.89       8.95       6.74
H       9.78       8.43      11.80
H       9.68       6.97      12.80
H      11.15       7.96      12.82
H      11.52       5.91      11.41
H      11.60       7.37      10.41
H       9.23       7.01       9.71
O      10.63       7.33       7.71
H       9.15       5.56      10.72
O      11.87       3.04       5.80
H      13.60       2.26       6.69
H      13.83       3.78       5.75
H      13.50       2.24       4.89
H      13.72       5.73       2.13
C      13.82       6.71       2.57
N      14.44       7.71       1.93
C      13.36       7.15       3.84
C      11.35       2.92      13.91
C      10.76       2.29      12.79
C      10.37       5.35       8.98
C      10.58       3.96       9.14
C      11.04       3.19       8.05
C      11.41       3.80       6.86
C      11.34       5.21       6.73
C      10.75       5.96       7.78
C      10.45       3.35      10.41
C      11.97       5.85       5.64
C      12.63       6.44       4.80
C      10.58       0.96      13.21
C      10.52       2.85      11.52
C      13.77       8.50       3.89
