26

H       0.05      11.16      11.56
H       0.28       9.30      13.20
H       2.00       6.83      10.12
H       1.86       8.72       8.52
H      -0.51       7.28      13.86
H      -0.51       5.17      15.17
H       2.99       3.85      13.07
H       3.04       5.97      11.80
O       0.08      12.18       9.24
O       1.41      11.07       7.83
O       0.16       2.82      15.64
O       1.98       2.15      14.44
C       0.80      11.16       8.96
C       0.94      10.06       9.94
C       0.49      10.21      11.26
C       0.61       9.16      12.17
C       1.16       7.93      11.78
C       1.60       7.79      10.45
C       1.51       8.84       9.55
C       1.24       6.77      12.69
C       0.27       6.54      13.69
C       0.26       5.36      14.42
C       1.21       4.36      14.17
C       2.23       4.61      13.24
C       2.24       5.80      12.52
C       1.11       3.01      14.81
