13

N       2.88       4.04       0.90
H       2.97       1.97       0.40
H       2.11       3.01      -0.76
H       3.18       3.65       2.98
H       4.44       3.03       1.94
O       4.92       4.15      -0.85
O       4.51       2.16      -1.78
O       4.55       6.10       1.54
O       5.37       5.11       3.35
C       4.22       3.08      -0.96
C       2.98       2.96      -0.09
C       3.76       3.88       2.07
C       4.62       5.11       2.34
