30

C       9.77       4.56       0.59
C      11.94       6.34      -0.35
C      11.61       6.20       1.16
H      10.87       3.95      -1.22
C      10.12       4.69      -0.91
H      12.20       5.40       1.62
C      11.34       6.32      -3.78
C       9.51       5.47       3.91
C      10.10       5.88       1.34
C      10.67       6.11      -1.21
H      10.34       3.74       1.06
C       9.60       7.16      -0.80
H      12.71       5.61      -0.65
C       9.27       7.03       0.71
C      11.01       6.23      -2.61
H      11.84       7.12       1.70
C       9.79       5.70       2.75
H       9.23       4.52      -1.54
H      12.34       7.34      -0.57
H       8.71       4.33       0.74
H       8.20       6.82       0.87
H       9.99       8.16      -1.03
H       9.49       7.96       1.25
H       8.71       7.01      -1.41
O       8.31       5.95       5.84
O      11.36       7.66      -5.66
O       9.12       3.85       5.51
O      12.73       5.84      -5.58
C       8.96       5.07       5.17
C      11.83       6.62      -5.10
