14

H       1.35       6.04      11.89
H       1.38       7.57      10.97
H      -1.16       7.61      10.95
N      -1.34       5.28       8.80
N       1.52       5.25       8.81
C      -0.61       5.84       9.76
C      -0.61       4.68       7.82
C       0.79       4.67       7.83
C       0.79       5.82       9.77
C       0.89       6.59      11.06
C      -0.70       6.62      11.05
H      -1.19       6.07      11.86
H      -1.18       4.21       7.02
H       1.35       4.20       7.02
