35

H       6.66      -3.29      10.31
H       6.68       0.38       8.01
H       4.14      -3.02       5.07
H       4.81      -1.52       6.72
H       4.50      -2.82       7.87
H       6.34      -5.74       6.30
H       6.41      -4.55       8.24
H       7.73      -2.89       4.17
H       6.24      -1.95       4.28
H       7.25      -0.90       6.10
H       8.46      -2.17       6.29
H       8.08      -4.10       7.85
H       5.53      -6.86       4.41
H       5.58      -3.11       2.25
C       5.76      -4.68       3.85
C       6.63      -2.27       9.93
C       6.64      -0.40       8.76
C       6.74      -1.80       8.62
C       4.79      -3.50       5.82
C       5.10      -2.55       6.98
C       6.90      -4.81       6.13
C       6.89      -2.65       4.83
C       6.09      -3.95       5.11
C       6.61      -2.58       7.34
C       7.04      -4.05       7.49
C       7.38      -1.99       6.14
C       5.47      -6.04       3.69
C       5.49      -4.14       2.59
C       8.19      -5.19       5.56
N       6.45      -1.24      10.78
N       6.46      -0.09      10.06
N       5.06      -6.29       2.43
N       5.07      -5.10       1.74
N       9.22      -5.49       5.11
Cl       3.80      -4.92       6.38
