16

O      18.76      14.75      23.55
S      21.07      13.62      22.31
S      21.88      13.37      18.22
C      24.34      12.15      18.25
C      23.08      12.69      20.45
C      19.89      14.33      20.08
C      23.24      12.67      19.06
C      19.73      14.35      21.47
C      21.11      13.72      19.71
O      25.40      11.78      18.85
O      24.13      12.14      16.98
C      21.86      13.29      20.82
C      18.63      14.88      22.28
Br      24.26      12.00      21.74
Br      18.71      15.01      18.79
O      17.65      15.43      21.67
