20

C      17.91       8.48      11.30
H      15.13       8.60      12.15
C      20.00       9.51      11.07
H      13.81       6.32      12.17
C      19.28       8.30      11.13
H      21.08       9.59      10.96
H      19.74       7.31      11.07
O      16.25       3.16      11.01
S      17.52      10.16      11.36
C      19.52      12.04      11.23
S      17.23       5.83      11.06
C      15.30       3.92      11.40
C      15.62       5.35      11.47
O      20.75      12.37      11.16
C      16.88       7.49      11.42
O      14.12       3.56      11.73
C      19.18      10.61      11.19
O      18.53      12.84      11.37
C      15.56       7.65      11.84
C      14.85       6.43      11.86
