34

H      -7.20       9.10       8.46
H      -4.88       8.91       6.15
H      -5.02      10.32       8.00
H      -6.86      11.46       4.23
H      -8.42      10.68       4.48
H      -8.73      11.87       6.46
H      -7.22      12.72       6.13
H      -4.73      10.33       5.12
H      -7.12      10.04       2.28
H      -5.02      11.74       6.96
H      -8.60       8.65       5.91
H      -5.99       6.66       4.73
H      -6.93      10.40      10.43
H      -7.36      13.99       8.06
H      -7.17       7.83       6.53
H      -8.73       9.80       7.93
C      -7.11      11.84       8.71
C      -7.60       8.82       6.33
C      -7.69       9.64       7.64
C      -5.36       9.86       5.88
C      -7.45      10.89       4.96
C      -6.75       9.56       5.27
C      -7.00      11.01       7.46
C      -5.51      10.77       7.12
C      -6.86       9.07       2.70
C      -7.66      11.72       6.25
C      -6.28       7.36       3.94
C      -6.61       8.72       4.03
C      -7.04      11.41      10.03
C      -7.25      13.24       8.83
N      -6.36       6.93       2.66
N      -7.14      12.47      10.87
N      -7.26      13.61      10.12
N      -6.73       8.00       1.88
