28

C      14.06       5.84      38.86
C      15.78       4.11      38.86
C      14.92       4.97      39.58
C      14.92       4.97      40.99
C      14.92       4.97      42.21
C      14.92       4.97      43.62
C      14.06       5.84      44.34
C      15.78       4.11      44.34
C      14.07       5.83      45.73
C      15.78       4.12      45.73
C      14.92       4.97      46.44
C      14.92       4.97      47.93
H      13.41       6.49      36.91
H      16.44       3.46      36.91
O      14.12       5.78      34.70
O      15.73       4.17      34.70
H      13.40       6.50      39.41
H      16.45       3.45      39.41
O      14.12       5.78      48.50
O      15.73       4.17      48.50
H      13.40       6.50      43.79
H      16.45       3.45      43.79
H      13.40       6.49      46.29
H      16.44       3.46      46.29
C      14.92       4.97      35.27
C      14.92       4.97      36.76
C      14.07       5.83      37.47
C      15.78       4.12      37.47
