22

O       3.15       8.36       9.01
O       3.12       6.11       8.74
O      -3.85       6.12       8.76
O      -3.88       8.38       9.01
F       0.95       5.58      10.50
F      -1.69       5.58      10.50
H      -2.85       9.09       7.10
H      -1.61      10.62       5.63
H       2.12       9.04       7.07
H       0.89      10.60       5.61
C       2.57       7.24       8.86
C      -3.30       7.26       8.88
C      -1.79       7.29       8.83
C      -1.08       8.19       7.97
C      -1.07       6.43       9.64
C      -1.76       9.08       7.10
C      -1.07       9.94       6.28
C       1.06       7.28       8.83
C       0.34       6.43       9.64
C       0.35       8.18       7.97
C       1.04       9.06       7.09
C       0.35       9.93       6.27
