14

H      10.74      10.30      13.58
O      14.71      15.13      14.09
O      10.88       7.75      13.44
O      13.08       7.99      13.97
C      13.64      14.45      13.99
H      14.77      12.59      14.31
H      13.76      10.28      14.24
H      11.72      12.63      13.86
C      11.92       8.45      13.73
C      13.77      12.98      14.14
C      11.74       9.91      13.79
C      12.70      12.17      14.03
C      12.78      10.74      14.05
O      12.48      14.92      13.75
