24

H       4.87      11.34      13.00
H       8.50       8.13      11.90
H       3.55      10.67      11.31
H       9.04      10.21      15.01
C       6.92      13.06      16.81
C       6.48       6.31       8.17
C       5.52       9.79      11.65
C       7.83       9.66      13.25
C       6.55       8.86      11.33
C       6.81      10.59      13.58
C       7.70       8.83      12.14
C       5.67      10.63      12.75
C       6.47       7.98      10.23
C       6.89      11.44      14.70
C       6.90      12.20      15.65
C       6.50       7.19       9.30
C       4.24       9.89      10.90
C       9.05       9.57      14.09
O       5.79      13.42      17.26
O       7.62       5.94       7.71
O       8.07      13.35      17.28
O       5.34       5.98       7.71
O       3.93       9.22       9.94
O      10.02       8.86      13.82
