32

H       1.78       0.89      11.84
H       2.00       0.30      14.27
H      -2.10       1.43      14.87
H       3.19       0.81      18.05
H      -0.91      -0.48      18.14
H      -0.66      -1.02      20.58
H      -2.75       2.18      11.36
H      -3.40       2.14      12.99
H       3.83       0.11      21.57
H       4.49       0.72      20.06
C       1.43      -0.76      22.14
C      -0.27       1.90      10.56
C      -0.26       1.52      11.98
C       0.95       1.03      12.53
C       1.08       0.71      13.86
C      -0.04       0.89      14.70
C      -1.26       1.33      14.19
C      -1.41       1.65      12.82
C       2.35       0.42      18.63
C       1.14       0.22      17.98
C       0.02      -0.30      18.68
C       0.17      -0.60      20.01
C       1.39      -0.40      20.71
C       2.51       0.13      20.00
N      -0.03       0.63      16.09
N       1.13       0.54      16.60
N      -2.60       2.11      12.37
N       3.71       0.38      20.60
O       0.33      -1.06      22.71
O      -1.41       1.98       9.97
O       0.84       2.14       9.99
O       2.58      -0.76      22.73
