28

N       1.99      27.38       8.37
N       1.99      28.50       7.76
Cl       2.04      22.33       8.30
Cl       2.04      33.54       7.84
H       1.87      25.14       4.30
H       1.91      27.28       5.62
H       2.03      25.00       9.26
H       2.03      30.88       6.87
H       1.91      28.60      10.51
H       1.87      30.74      11.83
O       2.97      34.05      10.75
O       1.10      33.35      11.81
O       2.97      21.83       5.38
O       1.10      22.53       4.32
C       2.02      33.23      10.94
C       2.02      22.65       5.19
C       1.99      23.87       6.04
C       1.92      25.12       5.39
C       1.94      26.31       6.11
C       1.99      26.25       7.52
C       2.02      25.02       8.18
C       2.04      23.84       7.44
C       2.02      30.86       7.96
C       1.99      29.62       8.61
C       1.94      29.57      10.02
C       1.92      30.76      10.74
C       1.99      32.00      10.09
C       2.04      32.04       8.69
