16

O       7.54       7.63      17.01
O       7.40       8.93      18.88
Cl       7.29       7.75      21.63
C       7.46       7.81      18.28
S       7.54       5.06      18.30
S       7.37       4.32      22.41
C       7.45       1.55      22.40
O       7.37       1.70      23.67
C       7.39       6.48      20.49
C       7.52       2.88      20.22
C       7.45       6.60      19.11
C       7.46       2.78      21.60
C       7.50       4.23      19.81
C       7.41       5.13      20.90
H       7.58       2.01      19.57
O       7.53       0.45      21.76
