24

O       5.75      -0.45       8.64
O       7.44      -1.71       9.44
H       8.10       2.75       5.85
O      13.89      -1.70      10.18
H       6.43       1.40       7.17
O      15.68      -1.52       8.77
H       9.69      -0.81       8.86
H      11.84      -0.81       9.10
H      15.51       0.46       7.31
H      14.18       2.04       5.85
C       8.42       1.96       6.53
C       7.50       1.22       7.26
C       7.96       0.19       8.09
C       9.34      -0.01       8.21
C      10.22       0.79       7.47
C      11.68       0.66       7.50
C      12.36      -0.20       8.37
C      13.75      -0.29       8.29
C      14.43       0.53       7.38
C      13.70       1.39       6.57
C       6.98      -0.72       8.79
C      14.52      -1.26       9.17
N       9.75       1.75       6.61
N      12.35       1.44       6.61
