16

O      10.24      10.78      14.62
S      11.19       7.38      12.92
S      14.78       8.97      11.48
C      10.16       9.56      14.26
O       9.21       8.74      14.50
C      12.44       9.67      13.04
C      13.53       6.66      11.35
C      15.77       6.77      10.12
C      14.68       7.32      10.94
C      12.71       7.52      12.12
C      13.26       8.81      12.27
C      11.28       9.04      13.46
O      16.74       7.57       9.87
O      15.65       5.56       9.74
H      13.32       5.63      11.09
Cl      12.90      11.29      13.37
