24

H       0.69       3.61       1.56
H      -1.81       3.48       1.59
H      -3.75       1.16      -0.71
C       0.14       2.98       0.86
C      -1.24       2.91       0.85
H      -3.71       3.92       0.67
C      -1.89       2.10      -0.10
H      -5.76       5.14       0.67
C      -3.34       2.04      -0.20
H      -8.26       5.16       0.53
C      -4.16       3.02       0.24
H      -8.38       1.15      -0.47
C      -5.61       3.03       0.16
H      -5.91       0.92      -0.35
H      -1.54       0.66      -1.68
C      -6.31       4.23       0.42
H       0.97       0.92      -1.56
C      -7.69       4.25       0.34
C      -7.75       2.00      -0.22
C      -6.37       1.89      -0.16
C      -1.08       1.34      -0.96
C       0.30       1.47      -0.90
N       0.90       2.29      -0.01
N      -8.40       3.16       0.02
