20

C      30.32      19.45      26.75
C      30.19      18.32      30.21
C      30.25      20.78      27.20
C      30.26      16.99      29.76
C      30.20      19.21      29.10
C      30.29      18.55      27.86
S      30.16      20.92      28.94
S      30.36      16.84      28.02
H      30.18      18.12      25.20
H      30.33      19.81      24.77
H      29.86      19.64      31.74
H      30.04      17.96      32.20
N      30.45      19.06      25.45
N      30.16      18.71      31.51
C      30.23      21.97      26.39
C      30.24      15.79      30.57
O      30.10      23.09      27.00
O      30.33      21.82      25.11
O      30.18      15.95      31.85
O      30.28      14.67      29.95
