20

C       7.41      13.01      18.71
C       7.90      13.77      19.79
C       7.93      15.15      19.69
C       7.02      15.10      17.57
C       6.96      13.72      17.58
N       7.37       8.72      18.78
N       7.51      15.82      18.60
H       8.95       8.84      20.13
H       9.06      11.31      20.12
H       5.70      11.28      17.37
H       5.79       8.83      17.43
H       8.21      13.29      20.71
H       8.29      15.76      20.52
H       6.68      15.68      16.71
H       6.59      13.19      16.70
C       8.25       9.42      19.52
C       8.29      10.81      19.54
C       7.38      11.54      18.75
C       6.46      10.80      17.99
C       6.49       9.42      18.03
