26

C       6.37       2.09       1.21
C       6.09       0.99       2.19
C       5.50       1.35       3.41
C       5.25       0.39       4.38
H       5.23       2.39       3.58
C       5.59      -0.96       4.15
H       4.76       0.68       5.31
C       6.18      -1.31       2.92
C       6.41      -0.35       1.94
H       6.49      -2.33       2.73
H       6.89      -0.64       1.00
C       5.34      -1.98       5.19
H       5.67      -0.64       6.85
C       5.41      -1.65       6.56
C       5.20      -2.62       7.54
H       5.29      -2.37       8.60
O       6.56       3.23       1.75
C       4.90      -3.94       7.17
H       4.58      -5.30       5.54
O       6.37       1.89      -0.04
C       4.81      -4.27       5.81
H       4.94      -3.58       3.79
C       5.03      -3.31       4.84
O       4.67      -4.65       9.43
C       4.77      -5.00       8.20
O       4.80      -6.22       7.81
