34

H       4.81      10.48      30.70
H       4.69      10.42      28.23
H       0.48      11.41      28.45
H       5.30      11.40      24.02
H       1.09      10.42      24.23
H       0.97      10.48      21.77
H       1.36      10.93      26.36
H       4.42      10.93      26.11
C       3.01      10.88      20.00
C       2.78      10.88      32.46
C       2.75      10.97      30.98
C       3.87      10.70      30.19
C       3.79      10.67      28.80
C       2.57      10.92      28.14
C       1.44      11.20      28.93
C       1.54      11.24      30.30
C       2.40      10.90      26.70
C       3.38      10.90      25.77
C       4.34      11.20      23.54
C       3.21      10.92      24.33
C       1.99      10.67      23.66
C       1.91      10.69      22.27
C       3.04      10.97      21.49
C       4.24      11.24      22.16
N       0.31      11.62      31.02
N       5.48      11.62      21.45
O       1.88      10.89      19.39
O       4.14      10.78      19.43
O       3.91      10.87      33.07
O       1.65      10.79      33.04
O       0.25      12.76      31.49
O      -0.61      10.79      31.02
O       5.54      12.76      20.98
O       6.39      10.78      21.46
