23

C       7.05       9.64       1.42
C       7.41      10.48       2.61
C       6.51      10.61       3.68
C       6.82      11.43       4.76
C       8.03      12.15       4.80
C       8.93      12.00       3.74
C       8.63      11.17       2.66
C       7.58      14.57       7.67
C       7.28      13.74       6.59
C       8.31      13.05       5.94
C       9.62      13.25       6.42
C       9.83      14.09       7.51
N       8.83      14.74       8.14
H       5.57      10.07       3.64
H       6.11      11.51       5.59
H       9.88      12.54       3.74
H       9.33      11.04       1.83
H       6.79      15.09       8.20
H       6.25      13.66       6.24
H      10.46      12.73       5.97
H      10.82      14.25       7.93
O       5.85       9.19       1.38
O       7.93       9.45       0.52
