44

H       6.40       1.02      11.20
H       8.83       1.06      11.26
H      10.95      -4.54      11.13
H       8.90      -5.75      11.56
H       6.42      -5.76      11.51
H       2.26      -0.68       9.49
S      11.45       0.35      11.19
N      14.18      -2.81       8.97
N      14.26      -3.91       9.78
H      12.91      -1.11       8.91
N       1.86      -4.54      12.03
N       0.68      -2.04       9.83
N       0.56      -3.21      10.55
H      13.21      -4.59      11.47
O      11.75       0.75       9.84
O      10.86       1.30      12.11
H       1.39      -5.39      11.75
H       2.81      -4.73      12.33
O      12.89      -0.06      11.81
H      12.82      -0.04      12.79
H       4.35      -4.56      11.12
H       4.25      -0.24      11.09
C       1.74      -3.47      11.14
C       2.68      -2.45      10.81
C       4.85      -3.59      11.23
C       4.11      -2.40      11.10
C       4.81      -1.18      11.16
C       6.21      -1.14      11.28
C       6.95      -2.35      11.37
C       6.24      -3.60      11.38
C       6.95       0.08      11.26
C       8.32       0.10      11.29
C       9.10      -1.11      11.32
C       8.37      -2.34      11.40
C       9.07      -3.58      11.43
C       8.34      -4.81      11.51
C       6.98      -4.82      11.48
C      10.52      -1.17      11.21
C      11.20      -2.41      11.05
C      13.17      -2.04       9.41
C      10.45      -3.58      11.25
C      12.55      -2.65      10.51
C      13.30      -3.82      10.71
C       1.93      -1.58       9.99
