34

H      10.72      12.99       7.76
H       6.59      12.72       6.58
H       6.23      19.42       7.92
H      10.36      19.74       6.77
H      10.35      16.39       8.79
H      11.63      15.36       8.18
H       6.04      16.09       5.77
H       5.27      14.84       6.75
H       6.60      15.98       8.78
H       5.32      17.03       8.22
H      10.89      16.42       5.77
H      11.69      17.61       6.81
C       8.22      21.21       7.39
C       8.75      11.24       7.10
C      10.72      15.87       7.88
C       6.12      15.53       6.71
C       6.23      16.54       7.90
C      10.83      16.94       6.74
C       9.80      13.50       7.44
C       9.70      14.88       7.44
C       7.47      13.35       6.77
C       7.38      14.73       6.77
C       7.15      18.93       7.59
C       7.25      17.54       7.51
C       9.49      19.11       6.93
C       9.57      17.73       6.85
C       8.69      12.72       7.08
C       8.51      15.49       7.04
C       8.27      19.72       7.28
C       8.43      16.96       7.08
O       9.35      21.79       7.47
O       9.91      10.70       7.19
O       7.63      10.63       7.03
O       7.06      21.76       7.42
