32

C      16.14       4.98       7.05
C      16.33       5.23      -7.06
H      15.24       3.03       5.37
H      18.26       6.13      -5.36
H      15.20       3.10       2.87
H      18.18       6.14      -2.85
H      17.13       6.95       2.95
H      14.37       4.13      -2.97
H      17.06       6.92       5.46
H      14.40       4.24      -5.48
N      17.02       5.94       0.69
N      15.38       4.25      -0.69
N      17.03       5.98      -0.63
N      15.34       4.24       0.62
O      16.20       6.11       7.63
O      15.20       5.20      -7.64
O      16.07       3.84       7.65
O      17.47       5.30      -7.65
C      15.64       3.89       4.83
C      17.41       5.71      -4.83
C      15.62       3.93       3.44
C      17.37       5.70      -3.44
C      16.17       5.03       2.76
C      16.27       5.13      -2.76
C      16.70       6.10       3.49
C      15.21       4.58      -3.50
C      16.68       6.08       4.88
C      15.23       4.63      -4.89
C      16.15       4.97       5.56
C      16.33       5.18      -5.56
C      16.23       5.12      -1.30
C      16.18       5.07       1.29
