30

H       5.02      12.51       4.11
H       5.17      12.53       6.56
H       0.85      12.54       6.74
H       6.12      12.60      10.73
H       1.80      12.57      10.90
H       1.94      12.58      13.36
H       1.95      12.55       8.73
H       5.03      12.57       8.73
Cl       0.11      12.53       4.12
Cl       6.86      12.63      13.34
O       5.16      12.59      15.56
O       2.90      12.60      15.54
C       4.05      12.60      14.95
C       2.92      12.51       2.52
O       1.81      12.51       1.90
O       4.07      12.50       1.92
C       2.89      12.52       4.01
C       4.12      12.52       4.70
C       4.19      12.53       6.09
C       3.01      12.54       6.86
C       1.78      12.54       6.17
C       1.71      12.53       4.78
C       2.96      12.55       8.31
C       4.02      12.57       9.15
C       5.19      12.60      11.29
C       3.97      12.58      10.61
C       2.78      12.58      11.38
C       2.85      12.59      12.76
C       4.08      12.60      13.46
C       5.26      12.61      12.68
