32

C       5.46       5.38      30.71
C       4.89       6.40      31.49
C       3.79       7.09      30.96
C       3.32       6.75      29.69
H       8.26       9.05      35.04
H       6.91       9.39      36.10
H       5.84      10.84      34.44
H       7.55      11.29      34.45
H       7.92       9.76      32.48
N       6.55       6.91      35.38
H       6.03       8.77      31.33
N       3.89       5.78      28.95
H       5.15       4.57      33.42
H       6.12       4.92      35.71
O       6.66      11.35      31.97
H       5.37       4.35      28.79
H       6.31       4.82      31.08
O       4.55       9.68      32.48
H       3.32       7.89      31.53
H       2.48       7.27      29.24
H       6.95      11.20      31.06
H       4.64      10.57      32.10
C       6.51       7.98      34.55
C       7.17       9.24      35.04
C       6.85      10.48      34.21
C       6.92      10.15      32.73
C       5.86       9.10      32.37
C       5.92       7.89      33.27
C       5.43       6.64      32.84
C       5.51       5.55      33.72
C       6.05       5.73      34.98
C       4.94       5.11      29.45
