42

O       3.25       5.58       6.96
H       0.97       8.38       8.65
H       0.81       4.67       6.58
O      -3.55       7.83       7.46
O       1.31       6.87      10.00
O       1.16       4.31       8.58
O      -3.65       5.67       8.16
O      -1.46       8.48       9.44
O      -1.63       4.14       6.91
H      -1.09       6.56       9.78
H      -1.20       4.78       8.73
H       0.99       8.26       6.29
H       0.87       6.72       5.44
H      -1.33       8.39       6.44
H      -1.45       6.91       5.51
H       0.30       8.07      11.39
H       1.79       8.78      10.68
H       1.91       7.43      11.85
H       1.69       2.77       7.28
H       0.19       2.48       8.21
H       1.79       2.43       9.04
H      -0.36       9.73       8.13
H      -1.40      10.50       9.35
H      -2.14       9.72       7.91
H      -0.79       4.73       5.06
H      -2.55       5.06       5.26
H      -1.96       3.38       5.07
C      -0.99       7.35       6.41
C       2.64       6.59       7.45
C      -3.03       6.71       7.77
C       0.66       7.33       8.82
C       0.56       5.11       7.56
C      -0.88       7.26       8.95
C      -0.99       5.14       7.72
C       0.54       7.26       6.34
C       1.12       6.53       7.59
C      -1.51       6.61       7.66
C       1.32       7.85      11.03
C       1.20       2.93       8.25
C      -1.33       9.66       8.65
C      -1.73       4.36       5.51
O       3.18       7.70       7.77
