14

O      -1.33      10.48       3.00
C      -0.45      12.64       2.72
H       0.37      12.17       2.18
C      -3.62      11.61       4.58
O      -3.63      10.33       4.59
C      -1.47      11.77       3.22
C      -2.55      12.39       3.94
O      -4.56      12.25       5.18
Br      -1.63      16.48       3.85
H       0.31      14.63       2.51
C      -2.58      13.79       4.10
H      -3.42      14.22       4.65
C      -1.56      14.58       3.60
C      -0.49      14.01       2.91
