22

O       8.75       7.77       0.68
O       8.54       5.64       1.42
F      15.97       9.54       0.37
F      13.37       9.86       0.52
F      11.06       8.86       0.96
F      10.63       4.11       1.29
F      13.22       3.85       1.37
F      15.55       4.90       1.36
C      17.35       7.04       0.89
C       9.22       6.65       1.07
C      11.58       7.61       1.00
C      11.36       5.25       1.21
C      12.73       5.10       1.25
C      13.59       6.21       1.12
C      15.01       6.11       1.11
C      15.23       8.45       0.67
C      13.86       8.62       0.73
C      12.99       7.51       0.96
C      10.73       6.51       1.10
C      15.85       7.19       0.88
O      17.82       5.94       0.46
O      18.01       8.03       1.33
