10

C       1.04       4.58      10.60
N      -1.11       5.53      11.03
N       1.65       5.68      11.08
C      -0.50       6.63      11.51
H       1.66       3.75      10.26
H      -1.13       7.46      11.85
F      -0.97       3.46      10.10
F       1.51       7.75      12.01
C      -0.35       4.54      10.58
C       0.89       6.67      11.52
