23

C       5.44       6.33      17.85
C       5.40       6.23      14.97
C       4.25       6.40      17.12
C       6.63       6.29      15.69
C       4.25       6.36      15.72
C       6.63       6.34      17.09
C       2.74       6.43      17.22
C       2.73       6.41      15.64
H       7.57       6.38      17.63
H       2.28       5.55      17.68
H       2.32       7.33      17.69
H       2.33       7.30      15.15
H       2.26       5.53      15.19
C       7.95       6.44      14.98
H       8.77       5.21      16.28
C       5.30       5.85      13.52
C       5.46       6.18      19.33
O       4.17       6.06      12.97
O       6.30       5.29      12.97
O       6.57       6.35      19.94
O       4.35       5.87      19.88
O       9.00       5.70      15.46
O       8.14       7.21      14.06
