10

O       7.35      -0.64      10.08
C       2.57      -4.31       5.97
O       2.75      -5.51       5.59
C       7.53      -1.84       9.70
O       8.52      -2.60       9.95
O       1.58      -3.55       5.73
C       6.48      -2.40       8.89
C       3.62      -3.75       6.78
C       5.56      -2.84       8.21
C       4.54      -3.32       7.46
