36

C       2.40      -5.24      28.89
C       4.30      -4.21      29.54
C       3.04      -3.32      27.89
C       1.52      -6.43      28.90
N       2.14      -4.30      27.97
C       1.33      -7.20      30.05
C       0.48      -8.30      29.99
C       0.88      -6.81      27.72
N       3.43      -5.21      29.75
C       0.06      -7.93      27.74
N       4.17      -3.25      28.61
C       2.79      -2.26      26.89
C       3.82      -1.44      26.42
C       5.52      -4.18      30.38
H       1.84      -6.93      30.98
C       5.85      -5.25      31.21
C       7.49      -3.06      31.17
C       1.50      -2.06      26.38
H       1.04      -6.26      26.80
C       6.37      -3.06      30.35
H       0.28      -8.93      30.86
H      -0.47      -8.27      26.84
H       4.83      -1.57      26.81
H       0.67      -2.67      26.74
H       4.31       0.19      25.07
H       0.31      -0.88      25.01
H       5.21      -6.13      31.25
H       6.14      -2.21      29.72
H       7.29      -5.97      32.68
H       8.19      -2.22      31.19
N      -0.15      -8.65      28.86
N       2.30      -0.30      24.97
N       7.79      -4.09      31.99
C       3.54      -0.48      25.46
C       1.30      -1.07      25.43
C       6.99      -5.17      32.00
