26

C       5.40       9.29      10.63
C       5.39       9.29       9.24
C       4.80       8.25       8.47
C       4.82       8.27       6.98
H       3.72       6.38      11.15
H       5.89      10.14       4.30
H       3.75       6.41       4.28
H       3.75       6.41       6.72
H       5.86      10.11      11.17
H       5.87      10.12       8.73
O       5.36       9.23      13.43
O       4.22       7.26      13.42
C       4.79       8.24      12.84
C       4.80       8.28       2.61
O       4.22       7.30       2.03
O       5.36       9.27       2.03
F       3.60       6.15       8.67
F       6.02      10.37       6.78
C       4.80       8.25      11.35
C       4.81       8.27       4.10
C       4.20       7.21      10.63
C       4.21       7.23       9.25
C       5.41       9.31       4.82
C       5.41       9.29       6.20
C       4.22       7.23       4.82
C       4.22       7.23       6.21
