19

N       7.80       4.07       5.66
C       5.87       4.13       4.52
C       7.83       5.96       1.46
N       6.92       3.85       3.65
C       6.83       3.77       2.21
H       4.84       4.21       4.19
C       8.07       3.83       4.39
H       8.84       5.73       1.77
C       5.65       5.68       1.11
C       7.29       7.09       0.90
C       6.44       4.26       5.76
H       5.92       3.21       1.93
H       7.71       3.22       1.85
H       9.06       3.66       3.97
H       4.67       5.22       1.09
H       7.79       8.02       0.62
N       5.94       6.90       0.68
H       5.96       4.46       6.71
N       6.78       5.07       1.58
