26

O      11.02      10.46      26.81
O       9.97      12.25      25.95
O      12.91       7.49      15.88
O      11.18       8.80      15.38
C      10.58      11.13      25.82
C      10.77      10.61      24.43
C      10.32      11.37      23.34
C      11.38       9.37      24.19
C      10.49      10.91      22.04
C      11.55       8.91      22.89
C      11.11       9.67      21.79
C      11.29       9.22      20.40
C      10.35       9.57      19.41
C      12.41       8.46      20.01
C      10.56       9.22      18.08
C      12.61       8.09      18.68
H       9.84      12.33      23.55
H      11.72       8.78      25.04
H      10.17      11.53      21.21
H      12.00       7.93      22.71
H       9.44      10.10      19.69
H      13.15       8.18      20.75
H       9.85       9.50      17.30
C      11.70       8.50      17.69
H      13.47       7.49      18.42
C      11.93       8.24      16.24
