16

C       2.58      12.71       7.28
O       3.73      12.42       7.75
O       1.46      12.52       7.85
C       1.37      13.91       5.44
C       1.35      14.52       4.19
C       2.53      14.57       3.42
C       3.72      14.01       3.91
H       0.47      13.86       6.06
C       2.56      13.36       5.93
H       0.44      14.96       3.79
C       3.73      13.41       5.16
C       2.50      15.23       2.08
H       4.61      14.06       3.29
O       3.62      15.43       1.51
O       1.36      15.53       1.61
H       4.64      12.96       5.56
