80

H       7.80       7.34      21.01
H      11.58       9.80      35.15
H      10.16       5.25      24.61
H       9.21      11.91      31.56
H       8.24       7.64      38.09
H      11.12       9.53      18.07
H       9.82       5.27      31.58
H       9.53      11.89      24.58
H       9.90       5.21      29.13
H       9.46      11.94      27.03
H       7.97       5.22      18.56
H       8.07       6.05      16.97
H       6.49       5.51      17.61
H      11.37      11.04      39.26
H      11.39      11.92      37.68
H      12.92      11.62      38.56
H       7.93       7.57      35.61
H      11.44       9.60      20.55
H      11.29       3.81      25.86
H       9.52       3.53      25.79
H      10.47       2.93      27.19
H       9.85      13.63      30.37
H       8.07      13.35      30.29
H       8.90      14.23      28.97
C       9.67       7.40      31.68
C       9.28       8.44      18.15
C      10.09       8.72      38.02
C       9.76       7.34      28.83
C       9.60       9.81      27.33
C       9.52       9.85      28.79
C       9.84       7.31      27.37
C       9.62       8.61      29.51
C       9.74       8.55      26.65
C       9.81       6.17      29.62
C       9.54      10.98      26.55
C       9.77       6.19      31.01
C       9.59      10.96      25.15
C       9.15       8.53      16.66
C      10.22       8.64      39.51
C      10.01       6.12      26.60
C       9.35      11.04      29.57
C       9.78       8.56      25.22
C       9.58       8.60      30.94
C       9.93       7.29      23.03
C       9.44       9.87      33.13
C       9.92       7.34      24.51
C       9.69       9.77      23.00
C       9.68       7.39      33.16
C      10.58       9.09      20.11
C       8.79       8.07      36.05
C      10.40       9.06      18.73
C       8.97       8.11      37.43
C       8.34       7.82      18.99
C      11.03       9.34      37.17
C       8.53       7.84      20.38
C       9.45       9.81      31.65
C      10.85       9.31      35.78
C       9.63       8.48      20.93
C       9.74       8.67      35.23
C       7.47       5.92      17.88
C      11.93      11.21      38.32
C      10.37       3.74      26.46
C       9.00      13.42      29.70
C      10.05       6.15      25.20
C       9.32      11.00      30.96
C       9.70       9.76      24.48
N       9.77       8.51      22.36
N       9.60       8.64      33.80
O       9.32      10.93      33.75
O       9.76       6.35      33.82
O       9.60      10.81      22.34
O       7.21       7.17      18.54
O      12.17       9.98      37.62
O      10.15       4.92      27.24
O       9.21      12.23      28.92
O      10.23       8.63      15.99
O       9.13       8.61      40.17
O       7.97       8.52      16.16
O      11.39       8.58      40.00
O      10.06       6.23      22.41
