20

C      24.16      15.51       3.05
C      22.05      14.49       4.77
C      24.19      14.21       3.57
C      22.03      15.81       4.23
C      23.17      13.74       4.40
C      23.05      16.29       3.40
C      24.98      12.92       3.63
C      23.82      12.38       4.57
H      22.99      17.31       3.02
H      25.09      12.40       2.67
H      25.97      12.99       4.10
H      24.12      12.14       5.60
H      23.24      11.54       4.17
Cl      20.75      16.94       4.53
C      21.01      13.89       5.66
C      25.23      16.06       2.17
O      21.23      12.68       6.01
O      20.01      14.60       5.99
O      25.10      17.27       1.78
O      26.18      15.26       1.87
