20

N       3.58       0.62       9.24
H       3.90      -0.68      12.16
N       4.37       0.29      10.33
N       2.28      -0.32      10.73
H       1.51       0.40       8.81
H      -0.31       0.35      10.25
O      -2.02      -3.23      14.44
H      -2.26      -0.52      11.47
O      -3.41      -1.78      13.45
H       0.35      -2.87      13.99
H       2.31      -2.07      12.72
C       3.57      -0.28      11.20
C       2.34       0.26       9.49
C       1.13      -0.82      11.40
C      -0.16      -0.38      11.05
C      -1.26      -0.86      11.75
C      -1.09      -1.77      12.81
C       0.20      -2.19      13.15
C       1.31      -1.72      12.45
C      -2.25      -2.29      13.61
