28

O       6.82       4.99       3.81
H       9.56       5.23      -2.64
O      10.57       5.97      -4.60
O      11.17       8.16      -4.57
H       9.06       5.69       3.31
F      11.61       9.21      -2.12
H       8.50       3.75      -1.89
H       7.05       2.03      -0.92
H      11.25       8.79       0.35
C       7.30       3.89       3.39
C      10.85       8.00      -0.28
C      10.56       7.08      -2.53
C       7.14       2.84       1.09
C       7.46       2.81      -0.28
C       8.28       3.79      -0.82
C       8.83       4.81      -0.02
C       8.55       4.80       1.38
C       9.63       5.89      -0.57
C      10.17       6.90       0.29
C       9.98       6.74       1.70
C       9.20       5.76       2.23
C       9.89       6.00      -1.95
C      11.00       8.10      -1.65
C       7.66       3.82       1.93
C      10.79       7.08      -4.01
I       5.79       1.35       1.76
I      10.96       8.06       3.03
O       7.53       2.85       4.08
