16

O      27.62      16.54      20.70
O      27.03      24.00      16.18
C      27.64      17.66      21.32
S      27.25      21.28      17.31
S      27.73      20.40      21.38
H      27.34      18.18      18.48
C      27.58      22.61      19.52
C      27.44      19.03      19.15
C      27.41      22.80      18.15
C      27.60      18.89      20.52
C      27.43      20.40      18.79
C      27.59      21.26      19.90
C      27.37      24.06      17.41
F      27.72      23.60      20.41
O      27.69      25.11      18.07
O      27.70      17.85      22.59
