30

Cl       6.76      10.94      23.42
Cl       6.70       2.96      20.43
O       6.80       5.85      16.28
O       6.57       8.10      16.35
C       6.70       8.15      19.09
C       6.72       8.17      20.49
C       6.72       9.41      21.22
C       6.72       5.73      19.09
O       6.87       8.05      27.56
O       6.63       5.80      27.50
C       6.72       5.70      20.49
C       6.73       5.72      23.35
C       6.71       4.48      21.26
H       6.69       9.08      18.53
H       6.72      10.35      20.67
H       6.74       4.80      18.52
C       6.71       4.49      22.62
C       6.75       8.20      23.36
C       6.75       9.41      22.59
C       6.70       6.94      18.40
C       6.72       6.94      21.21
H       6.70       3.55      23.18
C       6.73       6.96      22.63
H       6.71       4.81      25.32
C       6.75       6.96      25.45
C       6.77       8.17      24.76
H       6.80       9.10      25.33
C       6.69       6.96      16.89
C       6.75       6.94      26.95
C       6.73       5.74      24.76
