48

H       4.33      10.56       0.86
H       5.22       5.51      -2.17
H       4.48      13.05      -2.88
H       6.12      12.53      -2.43
H       5.83      13.81      -0.22
H       5.52       3.62      -0.65
H       5.77      14.86      -1.65
H       4.26      14.42      -0.83
H       4.88       0.98       2.77
H       6.44       1.72       3.22
H       7.55       0.67       1.24
H       6.75      -0.59       2.23
H       6.00      -0.03       0.71
H       3.81       7.01       3.44
H       4.48       6.95      -3.38
H       4.76       2.91       4.06
H       4.56      11.18      -3.91
H       4.22       8.61       2.34
C       4.33       8.84      -5.22
C       5.20       4.59      -0.26
C       3.82       5.12       5.27
C       4.51       9.40      -0.96
C       4.47       9.04      -3.75
C       4.23       4.98       3.84
C       4.56      10.53      -1.84
C       5.07       3.61       2.03
C       4.54      10.35      -3.22
C       4.71       3.74       3.36
C       4.52       7.94      -2.92
C       4.94       4.72       1.13
C       4.18       6.08       3.01
C       4.57       8.09      -1.52
C       4.54       5.99       1.65
C       5.14      12.84      -2.02
C       5.25      14.05      -1.13
C       5.83       1.36       2.37
C       6.57       0.30       1.59
C       4.68       6.95      -0.62
C       4.51       7.13       0.77
C       4.35       8.46       1.27
C       5.03       5.65      -1.11
C       4.40       9.56       0.45
O       4.54       9.85      -5.98
O       5.57       2.46       1.48
O       3.97       4.11       6.04
O       3.99       7.68      -5.61
O       3.36       6.25       5.64
O       4.61      11.76      -1.24
