26

C       1.75       4.06      10.01
H      -0.79       0.61       7.19
C       2.37       5.57      11.86
H       0.15       1.98       9.06
C       1.47       5.11      12.84
H       2.71       3.91       6.16
C       1.42       5.77      14.06
H       1.66       2.47       4.41
C       3.05       7.29      13.42
H       2.88       4.46       8.29
C       3.18       6.68      12.19
H       3.24       5.52      10.01
H       0.83       4.26      12.65
N       0.41       1.47       5.73
N       2.15       3.84       8.69
H       0.74       5.43      14.84
N       2.52       5.05      10.60
H       3.65       8.16      13.68
H       3.88       7.07      11.46
N       2.18       6.85      14.36
C      -0.00       1.35       7.01
O       0.83       3.46      10.56
C       0.52       2.10       8.05
C       1.53       3.04       7.76
C       1.95       3.18       6.42
C       1.37       2.39       5.46
