26

H      12.83      16.00      11.79
H      12.76      16.52      17.55
H      12.90      21.11      15.54
H      12.88      20.79      18.02
H      13.00      20.88      12.93
H      12.99      20.10      10.54
O      13.13      19.49      20.14
O      12.93      15.45      14.73
C      12.92      18.85      13.69
O      12.63      16.34       9.41
C      12.89      16.68      14.63
O      12.31      17.42      19.90
C      12.89      18.98      15.16
O      12.94      18.48       8.69
C      12.89      17.48      13.37
C      12.86      17.69      15.73
C      12.88      18.02      11.04
C      12.74      18.49      19.40
C      12.86      17.05      12.05
C      12.81      17.51      17.10
C      12.81      18.65      17.92
C      12.89      20.11      15.97
C      12.82      17.60       9.60
C      12.87      19.93      17.35
C      12.96      19.82      12.69
C      12.95      19.39      11.36
