16

H       7.23      16.33       4.34
N       6.14      18.07       4.44
N       6.30      16.75       4.36
N       5.21      16.02       4.26
C       4.81      18.22       4.40
C       4.21      16.93       4.29
C       4.23      19.54       4.52
C       2.83      16.49       4.29
N       4.81      20.58       5.15
N       2.42      15.31       4.79
N       2.91      21.26       4.38
N       1.77      17.14       3.79
N       3.97      21.64       5.04
N       1.08      15.24       4.56
N       0.69      16.33       3.97
N       3.04      19.95       4.05
