24

O       0.80       7.28       8.11
O      -4.05       5.81       7.27
O       0.86       5.02       7.91
O      -4.12       8.07       7.29
O      -1.83       4.98       8.55
O      -1.40       8.11       6.77
H      -1.92       5.64      10.52
H      -0.42       4.76      10.09
H      -1.75       2.64       9.81
H      -1.97       3.31      11.45
H      -3.25       3.53      10.22
H      -2.81       8.54       5.28
H      -1.45       7.48       4.78
H       0.15       9.38       5.07
H      -1.13       9.82       3.91
H      -1.19      10.45       5.57
C       0.25       6.14       8.01
C      -3.51       6.96       7.29
C      -1.25       6.08       7.98
C      -2.01       7.02       7.33
C      -1.52       4.79       9.95
C      -2.16       3.49      10.38
C      -1.73       8.36       5.38
C      -0.92       9.58       4.96
