24

O       0.13      12.37       3.90
O       6.51      20.06       5.15
O       0.29      14.40       4.89
O       4.55      19.52       4.16
C       4.32      12.00       4.18
C       7.64      16.00       4.87
H       4.86      11.06       4.09
C       2.93      12.05       4.13
H       8.66      15.64       4.96
C       7.34      17.35       4.92
H       2.34      11.15       3.99
C       2.29      13.28       4.29
C       6.01      17.77       4.76
H       8.11      18.10       5.05
C       3.06      14.43       4.43
H       2.55      15.39       4.56
C       5.02      16.79       4.61
H       3.99      17.12       4.49
C       4.45      14.33       4.45
C       5.38      15.45       4.60
C       0.78      13.35       4.35
C       5.66      19.24       4.70
N       5.06      13.11       4.33
N       6.68      15.06       4.71
