33

O       4.29      17.97       7.38
O       3.73      18.76       5.33
H       7.39      12.68       6.31
H       8.57       9.58       2.49
H      10.18       8.45       3.96
H       8.87      11.39       7.78
H      10.62       9.66       8.07
H       5.34      13.30       1.70
H      11.30       8.22       6.17
H       5.32      13.33       6.22
H       4.57      15.45       7.30
H       5.88      15.42       2.49
H       4.95      17.50       3.55
C       5.66      14.25       4.30
C       7.62      12.00       5.49
C       7.05      12.13       4.24
C       8.90      10.08       4.58
C       8.54      10.95       5.68
C       8.29      10.23       3.32
C       7.37      11.25       3.16
C       9.89       9.08       4.80
C       9.17      10.76       6.94
C      10.13       9.79       7.10
C       5.97      12.73       2.39
C      10.51       8.96       6.02
C       5.29      14.25       5.65
C       4.73      16.60       5.48
C       4.85      15.43       6.24
C       5.56      15.42       3.54
C       5.06      16.58       4.13
C       4.21      17.88       6.08
N       6.66      11.66       2.03
N       6.16      13.07       3.70
