24

O      18.22       7.80       8.24
H      17.34       5.34       2.84
H      20.18       7.25       3.86
H      18.45       7.33       3.29
H      16.73       6.69       4.96
H      16.24       5.58       7.04
H      18.88       3.24       7.49
H      17.10       3.46       7.13
H      16.56       4.28       4.85
C      18.18       3.40       2.79
C      18.10       4.78       3.42
C      19.19       6.77       3.90
C      17.55       6.12       5.45
C      17.26       6.01       6.95
C      18.13       3.86       6.99
C      17.58       4.70       4.86
C      17.21       7.38       7.60
O      19.29       2.98       2.36
O      17.05       2.81       2.75
O      19.34       5.46       3.37
O      18.80       6.78       5.26
O      18.21       5.15       7.58
O      18.46       3.86       5.61
O      16.11       7.99       7.39
