26

C      27.15      21.94       6.69
C      27.15      29.62      11.99
C      25.77      22.82       5.04
H      27.82      21.12       6.97
C      25.77      30.85      10.59
H      27.81      29.65      12.86
C      26.89      23.00       7.54
H      25.36      22.68       4.04
H      25.36      31.84      10.36
C      26.89      28.45      11.30
H      27.35      23.05       8.52
C      25.46      23.92       5.82
C      25.46      29.73       9.83
H      27.35      27.51      11.60
C      26.02      24.02       7.11
H      24.78      24.69       5.46
C      26.02      28.49      10.20
H      24.78      29.80       8.98
C      25.74      25.14       8.00
C      25.73      27.25       9.46
N      26.59      21.84       5.47
N      26.59      30.80      11.65
N      25.05      26.21       7.55
N      25.05      27.30       8.30
N      26.08      25.01       9.31
N      26.08      26.09      10.05
