16

H       6.00       2.34       7.74
H       7.13       0.19       8.71
H       3.69      -0.42       4.36
H       7.40      -2.30       8.51
H       4.80      -2.53       5.30
C       6.58      -0.37       7.95
C       6.74      -1.74       7.85
C       5.27      -1.89       6.04
C       5.05      -0.49       6.06
C       5.72       0.29       7.04
C       5.51       1.68       7.02
C       4.09       1.52       5.19
C       4.21       0.15       5.12
Br       2.98       2.39       3.94
N       4.73       2.28       6.13
N       6.09      -2.47       6.90
