28

Cl      14.07      13.12       4.64
Cl      16.78      17.82       4.64
Cl      11.37      14.68       6.85
Cl      14.08      19.38       6.85
H      18.47      16.19       3.04
H      16.32      12.46       3.04
H      11.83      20.03       8.46
H       9.68      16.30       8.46
O       8.62      18.08       9.73
O       9.76      20.06       9.73
C       9.60      18.84       9.40
C      18.55      13.66       2.09
C      17.50      14.27       2.95
C      17.61      15.61       3.35
C      16.63      16.17       4.16
O      19.53      14.41       1.76
O      18.39      12.44       1.76
C      16.40      13.50       3.35
C      15.42      14.07       4.15
C      15.50      15.42       4.58
C      14.50      16.00       5.39
C      13.64      16.50       6.10
C      12.65      17.07       6.91
C      12.73      18.42       7.34
C      10.53      16.89       8.14
C      11.52      16.32       7.34
C      10.65      18.22       8.54
C      11.75      18.99       8.14
