17

C      -1.57       7.45       9.43
H      -4.66      11.72       7.42
C      -1.89       8.91       9.52
H      -3.40       8.88       7.99
C      -1.37      11.04      10.62
H      -0.43       9.16      11.08
N      -2.75      12.91       9.70
H      -0.81      11.64      11.34
N      -3.69      13.04       8.73
H      -2.32      13.73      10.17
O      -2.33       6.73       8.65
C      -3.90      11.84       8.19
O      -0.61       6.99      10.08
C      -2.84       9.50       8.69
C      -2.32      11.63       9.78
C      -1.17       9.68      10.48
C      -3.05      10.88       8.81
