22

H       5.22       7.20       4.62
H       4.55       7.30       2.24
H       8.40       5.58       1.25
H       2.76       7.45      -1.25
H       6.61       5.75      -2.24
H       5.94       5.84      -4.63
C       5.90       6.85       3.85
C       5.53       6.90       2.52
C       6.42       6.43       1.56
C       7.67       5.94       1.96
C       7.93       5.92       3.33
C       3.49       7.10      -1.96
C       4.74       6.62      -1.56
C       5.64       6.14      -2.52
C       5.26       6.19      -3.85
C       3.23       7.12      -3.33
N       7.09       6.34       4.27
N       6.18       6.40       0.16
N       4.98       6.64      -0.16
N       4.07       6.70      -4.27
F       9.11       5.43       3.73
F       2.05       7.60      -3.73
