34

H       4.15       0.53       4.00
H      12.59      -1.44       7.80
H       8.49       2.09       4.73
H       8.25      -3.00       7.07
C       8.01       1.16       5.02
C       8.73      -2.08       6.78
C       6.71       0.98       4.66
C      10.03      -1.89       7.14
C       3.92      -3.94       5.46
C      12.82       3.03       6.33
C       4.57      -2.59       5.32
C      12.17       1.68       6.47
C       4.63      -0.31       4.50
C      12.11      -0.60       7.30
C       3.94      -1.49       4.70
C      12.80       0.58       7.10
C       5.88      -2.43       5.77
C      10.86       1.51       6.03
C       6.65      -1.25       5.62
C      10.09       0.34       6.18
C       5.96      -0.19       4.93
C      10.78      -0.72       6.87
C       8.03      -1.07       6.05
C       8.71       0.15       5.75
Cl      14.41       0.72       7.71
Cl       2.33      -1.63       4.09
O       2.81      -4.00       6.08
O      13.93       3.09       5.71
O       4.56      -4.90       4.94
O      12.19       3.99       6.86
F       6.08       1.97       3.97
F      10.66      -2.89       7.83
F      10.31       2.60       5.41
F       6.43      -3.51       6.38
