56

C       3.12      17.07       2.89
C       4.43      17.03       2.58
C       5.05      17.08       1.25
C       6.10      16.17       0.96
C       6.82      16.24      -0.29
C       3.67      19.04       0.52
C       3.35      20.00      -0.41
C       4.07      20.08      -1.62
C       5.09      19.19      -1.87
C      10.86      17.60      -5.71
C      10.31      17.50      -4.44
C       7.77      16.87      -7.82
H       7.11      16.77      -5.31
H       9.13      17.25      -2.09
H       6.37      17.39      -3.41
H       8.36      15.28      -1.48
H       8.95      13.58       0.19
H       7.67      13.44       2.34
H       5.83      15.01       2.78
H      -0.41      16.50       5.85
H       0.57      16.67       3.56
O       4.93      17.84       7.62
O       3.29      17.24       9.02
O       0.86      16.69       8.07
O       6.58      16.47      -7.62
O       8.21      17.07      -9.02
O      10.65      17.62      -8.07
H       2.38      17.06       2.09
H       5.14      16.92       3.41
H       3.15      19.03       1.48
H       2.56      20.73      -0.19
H       3.84      20.87      -2.34
H       5.68      19.30      -2.78
H      11.92      17.81      -5.85
H      10.94      17.64      -3.56
H       4.40      17.54       5.31
C      10.07      17.46      -6.87
C       8.69      17.13      -6.69
C       8.16      17.04      -5.39
C       8.93      17.25      -4.25
C       8.39      17.23      -2.89
C       7.08      17.28      -2.58
C       6.46      17.23      -1.25
C       5.41      18.14      -0.96
C       4.69      18.07       0.29
C       7.84      15.27      -0.53
C       8.16      14.31       0.41
C       7.44      14.23       1.62
C       6.42      15.12       1.87
C       0.65      16.71       5.71
C       1.20      16.81       4.44
C       3.74      17.44       7.82
C       1.44      16.85       6.87
C       2.82      17.18       6.69
C       3.35      17.27       5.39
C       2.58      17.06       4.25
