44

O      12.82       3.79       3.58
H       5.97      12.78      -2.49
H       8.64      13.25      -2.63
H       8.95       4.73       5.60
O      11.46      15.41       0.51
H       6.25       4.97       5.58
O      11.88      13.81       2.08
O      11.99       3.41       1.49
H       9.61      10.63       1.78
H       6.21       9.08      -0.38
H       6.20       7.07       1.04
H       9.60       8.61       3.20
C       6.52      11.53      -0.76
C       6.75      12.31      -1.91
C       8.13      12.56      -1.97
C       8.74      11.92      -0.88
C       8.85       6.02       3.83
C       8.35       5.35       4.95
C       6.95       5.47       4.93
C       6.60       6.24       3.82
C       3.68      13.27       1.15
C       3.30       5.03       2.16
C      12.03       4.04       2.60
C      11.37      14.22       0.97
C      11.06       5.07       2.85
C      10.07       5.69       3.23
C       4.23       5.95       2.80
C       5.32       6.26       3.25
C       9.89      12.41      -0.26
C      10.65      13.23       0.24
C       5.40      11.67       0.05
C       4.54      12.19       0.75
C       8.86       9.86       1.61
C       7.87      10.03       0.63
C       6.94       9.00       0.43
C       6.93       7.86       1.22
C       7.88       7.72       2.24
C       8.86       8.71       2.40
N       7.76      11.17      -0.21
N       7.78       6.63       3.16
O       2.97      13.69       0.17
O       3.81       3.92       1.76
O       2.05       5.23       2.04
O       3.68      13.74       2.34
