17

C       1.56       7.73       1.74
H      -1.52       7.33       6.44
C       1.24       6.91       2.95
H      -0.27       8.26       3.70
C       1.77       4.90       4.24
H       2.70       5.44       2.39
N       0.39       4.77       6.33
H       2.32       3.97       4.40
N      -0.56       5.53       6.92
H       0.81       3.95       6.80
O       0.81       8.76       1.50
C      -0.77       6.61       6.15
O       2.53       7.39       1.01
C       0.29       7.34       3.88
C       0.82       5.34       5.18
C       1.97       5.70       3.14
C       0.08       6.55       5.02
