28

C       8.65       9.49       9.80
C       7.79       8.47       9.33
C       7.44       7.41      10.20
C       7.97       7.36      11.48
C       5.55       7.25       5.14
C       5.02       7.19       3.83
C       6.16       9.27       3.33
C       6.67       9.33       4.61
C       6.36       8.32       5.55
C       6.86       8.40       6.87
C       7.30       8.47       8.01
C       5.32       8.22       2.91
C       4.75       8.37       1.53
Cl       4.02       5.86       3.44
Cl       5.21       6.00       6.27
H       7.73       6.54      12.16
H       9.84      10.20      11.46
H       6.38      10.05       2.60
O       5.01       9.45       0.93
O       3.99       7.44       1.06
H       6.78       6.63       9.84
H       7.31      10.16       4.92
O       9.27       7.13      13.89
H       8.90      10.32       9.14
O      10.28       9.14      13.65
C       9.49       8.20      13.26
C       8.84       8.36      11.93
C       9.16       9.43      11.09
