12

C       4.10       7.78       8.66
C       4.78      11.79      13.57
C       4.04       6.87       7.55
C       4.23       8.56       9.61
C       4.37       9.40      10.64
C       4.51      10.17      11.59
C       4.65      11.02      12.63
C       4.84      12.70      14.69
O       2.88       6.46       7.20
O       5.99      13.11      15.04
O       5.16       6.57       7.03
O       3.72      13.00      15.21
