10

O       5.73       5.47       3.91
O       3.50       5.05       3.69
C       4.98       5.73      -1.98
C       4.92       5.65      -0.76
C       4.84       5.56       0.59
C       4.77       5.46       1.81
C       5.05       5.84      -3.42
C       4.65       5.32       3.24
O       6.21       5.76      -3.93
O       3.94       6.00      -4.03
