23

H       3.75       6.08      15.98
H       3.20       4.64      14.03
H      -0.56       3.61      15.88
H      -0.01       5.12      17.79
C       2.26       6.52      18.21
H       3.06       2.50      13.38
H      -1.15       3.43      13.65
C       1.91       5.68      17.01
C       2.80       5.55      15.94
C       2.50       4.73      14.86
C       1.29       4.01      14.82
C       0.38       4.16      15.89
C       0.69       4.99      16.97
C       1.74       1.59      11.96
C       2.03       2.42      13.04
C       1.00       3.11      13.69
C      -0.30       2.91      13.20
C      -0.51       2.07      12.11
H       2.53       1.06      11.43
H      -1.51       1.91      11.70
N       0.49       1.42      11.49
O       3.46       6.97      18.24
O       1.39       6.71      19.10
