68

H       7.42      12.22      10.06
H      12.98      21.27       6.03
H      14.80      17.12       6.75
H      16.70      16.27       5.41
H      16.29      14.91       3.36
H      13.94      14.42       2.66
H      12.04      15.27       4.00
H       9.51      15.38      12.52
H       8.90      16.12      14.81
H       7.49      18.14      15.15
H       6.67      19.41      13.16
H       7.28      18.68      10.88
H       7.87      15.11       5.77
H       8.17      14.91       3.31
H       9.83      13.30       2.39
H      13.51      18.91       5.38
H      11.17      11.88       3.94
H      10.85      12.06       6.39
H       8.22      19.08       6.35
H       5.88      19.58       6.98
H       5.40      20.93       9.03
H       7.29      21.78      10.42
H       9.63      21.31       9.76
H       7.53      14.47      11.16
H      11.44      14.71       6.51
H       9.51      18.63       9.83
C      12.67      19.13       6.05
C       8.04      14.28      10.21
C      12.37      20.43       6.37
C       7.94      13.06       9.60
C      10.46      19.80       7.56
C       9.10      13.79       7.70
C      10.82      18.43       7.46
C       9.38      15.04       8.33
C      11.90      18.08       6.60
C       8.78      15.32       9.59
C      10.11      17.38       8.17
C      10.22      16.05       7.71
C      11.26      15.75       6.78
C       9.46      17.63       9.41
C      12.14      16.69       6.30
C       8.89      16.63      10.17
C      13.29      16.25       5.47
C      14.61      16.54       5.85
C      15.68      16.05       5.09
C      15.45      15.29       3.95
C      14.14      15.01       3.56
C      13.06      15.48       4.31
C       8.43      16.98      11.54
C       8.87      16.25      12.66
C       8.54      16.68      13.95
C       7.75      17.82      14.14
C       7.30      18.53      13.03
C       7.63      18.12      11.74
C       9.34      13.60       6.24
C       8.59      14.40       5.36
C       8.76      14.29       3.98
C       9.69      13.38       3.47
C      10.44      12.58       4.34
C      10.27      12.69       5.72
C       9.08      20.16       8.02
C       8.01      19.67       7.24
C       6.70      19.96       7.60
C       6.43      20.71       8.75
C       7.49      21.19       9.52
C       8.81      20.92       9.16
N      11.25      20.77       7.08
N       8.44      12.81       8.36
