32

C       2.21      -0.94       8.40
C      -0.32      -2.52       9.31
H       0.86      -1.99       7.09
C      -0.94       1.50       5.38
H       1.46       0.27       6.14
C      -0.67      -0.96       4.92
H       0.58       1.04       7.48
C      -0.75      -3.54       8.29
H      -1.55      -0.08       6.66
C       0.01      -4.68       8.03
H      -1.04      -2.47      10.14
C      -1.92      -3.35       7.54
H       0.65      -2.81       9.75
C      -2.29      -4.29       6.59
H      -1.89       1.50       4.82
C      -0.42      -5.58       7.06
H      -0.13       1.78       4.69
H      -1.01       2.28       6.16
N      -0.18      -1.16       8.76
H      -1.61      -0.97       4.35
N      -1.55      -5.40       6.36
H      -0.54      -1.97       5.34
O       2.26      -0.21       9.44
H       0.16      -0.79       4.21
O       3.20      -1.52       7.87
H       0.94      -4.88       8.56
H      -2.55      -2.46       7.66
H      -3.19      -4.18       6.00
H       0.18      -6.46       6.81
C       0.85      -1.08       7.70
C       0.60       0.16       6.82
C      -0.69       0.12       5.99
