27

O      -2.67      10.67       1.44
O      -6.57      12.38       7.41
O      -7.92      13.11       5.73
O      -6.81      16.25       4.54
O      -5.47      14.95       5.84
O      -6.66       9.59       6.66
O      -4.55       9.81       7.23
H      -4.10       9.24       4.51
H      -4.48      12.10       0.72
H      -5.49      14.31       0.27
H      -6.26      15.71       2.22
H      -5.62      15.70       6.45
C      -3.65      10.09       2.00
C      -6.85      12.60       6.17
C      -4.93      12.67       1.53
C      -5.48      13.91       1.28
C      -5.95      14.68       2.36
C      -5.96      14.18       3.66
C      -5.59      12.82       3.91
C      -4.95      12.11       2.83
C      -4.38      10.83       3.08
C      -4.52      10.23       4.31
C      -5.28      10.87       5.30
C      -5.85      12.12       5.15
C      -6.18      15.22       4.70
N      -5.52      10.04       6.51
O      -4.09       8.92       1.73
