44

O       2.13      18.00       8.58
O       3.73      18.73       9.96
O       6.18      19.25       9.01
O       5.13      19.38      -8.50
O       3.54      18.78      -9.95
O       1.08      18.17      -9.07
H       4.53      19.06      -6.18
H       4.30      18.93      -3.83
H       1.55      18.06      -2.74
H       1.26      17.85      -0.46
H       2.05      17.97       1.86
H       5.95      19.19       0.45
H       5.15      19.07      -1.87
H       5.65      19.01       2.73
H       2.92      18.13       3.85
H       2.71      18.14       6.22
H       7.47      19.38       6.81
H       6.58      19.05       4.54
H       0.66      17.99      -4.60
H      -0.21      17.82      -6.89
C       1.64      18.30      -7.86
C       3.01      18.67      -7.63
C       3.49      18.77      -6.31
C       2.68      18.53      -5.19
C       3.25      18.62      -3.86
C       2.60      18.37      -2.70
C       3.14      18.45      -1.35
C       2.29      18.15      -0.26
C       2.74      18.21       1.05
C       4.07      18.59       1.35
C       4.91      18.89       0.25
C       4.47      18.82      -1.06
C       4.61      18.69       2.69
C       3.97      18.44       3.86
C       4.55      18.60       5.19
C       3.76      18.43       6.33
C       4.25      18.63       7.63
C       5.62      19.01       7.82
C       6.42      19.13       6.66
C       5.91      18.93       5.40
C       3.32      18.43       8.76
C       1.33      18.18      -5.44
C       0.83      18.08      -6.72
C       3.94      18.96      -8.74
