38

H       5.27      13.88       4.77
H       5.66      12.39       5.60
H       8.92      15.68      10.54
H       8.60      17.17       9.62
H       8.55      17.19      11.39
H       6.23      17.20      10.51
H       6.53      15.71      11.40
H       8.48      12.07       9.21
H       8.76      12.08      10.95
H       9.12      13.53       9.98
H       6.96      13.78      11.29
H       6.32      12.34      10.50
H       6.93      17.36       5.41
H       6.74      15.87       4.46
H       5.85      17.35       4.01
H       4.29      15.76       5.17
H       4.51      17.23       6.11
H       3.36      12.32       6.64
H       2.95      13.85       5.84
H       3.27      12.38       4.87
C       5.48      15.50       6.93
C       6.45      14.06       9.23
C       6.39      15.46       9.28
C       5.54      14.10       6.89
C       5.91      16.13       8.12
C       6.01      13.43       8.04
C       5.87      17.55       8.16
C       6.00      12.01       8.01
C       5.07      13.31       5.69
C       3.58      12.95       5.77
C       6.81      16.26      10.49
C       8.31      16.59      10.51
C       6.99      13.21      10.36
C       8.42      12.70      10.10
C       5.03      16.33       5.75
C       6.20      16.75       4.86
N       5.97      10.85       7.98
N       5.85      18.71       8.19
