32

H       1.66      15.49      12.72
H      -1.66       9.95      15.46
O       1.36       7.65      19.77
O      -1.36      17.79       8.40
H      -2.07      15.76       9.48
H       2.07       9.68      18.70
C       0.21       7.94      19.30
C      -0.21      17.50       8.88
C       0.86      16.53      11.01
C      -0.86       8.91      17.17
C       0.84      15.55      12.00
C      -0.84       9.89      16.17
C      -0.21      14.63      12.10
C       0.21      10.81      16.07
C      -1.28      14.72      11.20
C       1.28      10.72      16.97
C      -1.25      15.69      10.20
C       1.25       9.75      17.98
C      -0.18      16.58      10.06
C       0.18       8.86      18.11
C       0.12      11.84      15.02
C      -0.12      13.60      13.16
I       2.48      17.88      11.14
I      -2.48       7.56      17.04
I      -2.94      13.44      11.34
I       2.94      12.00      16.83
N      -1.09      13.56      14.10
N       1.09      11.88      14.07
N      -0.96      12.65      15.06
N       0.96      12.79      13.12
O       0.91      17.89       8.42
O      -0.91       7.55      19.76
