16

C       6.32       3.80       0.54
S       6.33       1.50      -0.96
C       6.34      -3.75       0.43
S       6.39      -1.46       2.01
O       6.29       4.34      -0.60
O       6.34       4.40       1.68
C       6.36      -1.37      -0.58
C       6.37       1.44       1.63
C       6.37      -2.27       0.47
C       6.34       2.33       0.57
C       6.38       0.08       1.23
C       6.36      -0.02      -0.17
O       6.36      -4.31       1.59
O       6.30      -4.33      -0.69
F       6.35      -1.71      -1.89
F       6.39       1.80       2.93
