30

N       2.35      12.36       4.65
N       7.93      14.78      10.42
O       1.41      14.37       3.19
H       3.50      12.09       6.95
O       8.05      13.16      12.49
H       6.32      15.27       8.46
O       6.86      11.23      12.51
H       3.45      16.82       5.44
H       4.50      16.24       7.62
O       2.58      16.33       3.20
H       4.86      11.35      11.13
H       3.48      12.10       9.20
C       2.25      15.20       3.69
C       7.14      12.39      12.06
O       3.02      11.98       3.69
O       1.30      11.85       5.06
O       8.98      14.35       9.95
O       7.79      15.85      11.03
C       2.89      14.81       4.97
C       6.33      12.88      10.91
C       2.90      13.49       5.44
C       3.48      13.14       6.65
C       6.70      14.00      10.15
C       5.96      14.43       9.05
C       5.16      12.21      10.54
C       4.40      12.63       9.45
C       3.48      15.79       5.78
C       4.06      15.46       7.00
C       4.09      14.12       7.44
C       4.81      13.73       8.67
