34

H       6.09       5.81       4.45
H       6.36       5.44       1.98
H      10.37       5.98       4.81
H       6.85       4.57      -4.82
H      11.12       4.83      -4.45
H      10.85       5.19      -1.97
H      11.54       4.71       2.63
H      10.98       5.48       1.13
H      11.59       6.48       2.48
H       5.61       4.10      -2.52
H       6.23       5.03      -1.13
H       5.68       5.87      -2.60
C       8.14       6.20       6.25
C       9.08       4.41      -6.24
C       8.22       5.94       4.78
C       7.08       5.77       3.98
C       7.22       5.57       2.62
C       8.49       5.53       2.01
C       9.64       5.66       2.81
C       9.49       5.87       4.18
C       8.58       5.36       0.61
C       8.63       5.23      -0.61
C       8.72       5.07      -2.01
C       7.57       4.91      -2.81
C       7.73       4.71      -4.18
C       8.99       4.66      -4.78
C      10.14       4.85      -3.98
C       9.99       5.05      -2.62
C      11.01       5.58       2.22
C       6.20       4.98      -2.22
O       6.98       6.23       6.79
O       7.98       4.20      -6.84
O      10.24       4.41      -6.79
O       9.25       6.40       6.84
