18

O       3.21      11.33      15.83
O       5.48      11.35      15.82
O       7.58      11.27      12.66
C       5.40       9.53      11.99
C       5.41      10.36      13.12
C       4.34      10.28      14.04
C       3.26       9.44      13.77
H       6.23       9.59      11.28
H       2.43       9.41      14.47
H       2.37       8.03      12.39
H       6.24      12.30      13.78
C       3.23       8.66      12.62
C       4.32       8.69      11.73
C       4.34      11.05      15.32
C       6.49      11.38      13.21
O       3.18       7.36      10.15
C       4.30       7.85      10.50
O       5.41       7.68       9.89
