14

O       2.03      15.81      18.95
O      -3.23      20.80      19.21
C      -1.16      19.92      19.85
O       3.03      16.89      20.70
C       2.12      16.76      19.81
C      -2.18      21.01      19.89
O      -1.90      22.03      20.60
H       1.83      18.98      21.25
C       1.01      18.86      20.53
C       1.04      17.77      19.74
H       0.28      17.57      18.98
C       0.00      19.90      20.54
H       0.17      20.78      21.16
F      -1.52      18.89      19.05
