16

O       7.22       5.95       3.03
C       4.55       6.17       6.25
C       7.31       6.17       6.66
O       4.65       5.95       9.88
C       5.41       6.16       5.16
H       6.85       6.16       8.77
C       6.45       6.16       7.76
H       5.02       6.16       4.14
C       7.74       6.08       4.20
C       4.13       6.08       8.71
H       8.39       6.18       6.81
H       3.47       6.18       6.11
O       8.99       6.16       4.40
O       2.88       6.16       8.51
C       6.80       6.15       5.36
C       5.07       6.15       7.55
