18

N       5.76       0.97       5.35
N       8.07       1.41       6.84
N       9.13       2.00       7.39
N       3.21       0.13       8.42
N       2.31       1.08       8.24
N       2.74       1.89       7.27
N       9.62       2.87       6.52
C       3.93       1.40       6.87
C       4.84       2.00       5.85
H       4.25       2.50       5.06
H       5.44       2.78       6.34
H       6.65       2.36       3.97
H       7.34       0.71       4.01
H       5.26       0.30       4.76
C       6.91       1.52       4.63
C       7.95       1.96       5.61
N       8.90       2.88       5.40
N       4.23       0.30       7.57
