19

C      12.18      13.48      17.52
H      11.29      13.43      22.85
H      13.73      14.46      19.46
H       9.52      12.54      21.29
H      11.39      15.22      17.35
O       8.66      11.76      19.14
C       9.60      12.44      18.61
O       9.73      12.71      17.37
C      13.65      14.57      22.14
C      10.64      13.00      19.52
O      13.56      14.27      23.37
C      11.83      13.53      18.98
C      11.42      13.46      21.77
C      12.60      14.01      21.23
C      12.80      14.04      19.85
C      10.45      12.96      20.91
O      14.53      15.31      21.59
O      11.93      14.62      16.80
O      12.77      12.55      17.01
