56

H      11.14      10.54       1.12
H      10.33       9.78      -1.05
H       4.91       3.85      -1.17
H       4.83       4.09      -3.64
H       7.50       7.43      -3.44
H       7.08       6.17       2.37
H       8.81       8.42      -2.41
H       7.42       3.31       1.87
H       6.25       1.50       3.12
H       3.76       1.48       3.25
H       2.46       3.29       2.13
H       3.63       5.08       0.87
H       5.85       9.31       2.27
H       3.69       8.68       3.32
H       3.65       7.10       5.25
H       5.80       6.18       6.13
H       7.95       6.80       5.06
H      11.08      10.82       4.87
C       8.73       8.38      -1.33
C       9.58       9.14      -0.57
C       9.50       9.15       0.85
C       8.50       8.35       1.51
C      10.37       9.94       1.61
C      10.30       9.97       2.99
C       8.30       8.54       2.91
C       5.42       4.77      -3.03
C       6.95       6.66      -2.91
C       7.01       6.56      -1.50
C       9.14       9.33       5.14
C       6.14       5.94      -5.15
C       6.17       5.79      -3.66
C       9.23       9.28       3.64
C       5.47       4.65      -1.66
C       5.60       4.31       1.28
C       6.33       3.30       1.93
C       5.67       2.28       2.63
C       4.28       2.27       2.70
C       3.55       3.28       2.07
C       6.24       5.54      -0.86
C       4.20       4.29       1.36
C       7.04       8.10       3.59
C       5.83       8.62       3.11
C       4.62       8.27       3.71
C       4.60       7.38       4.79
C       5.81       6.87       5.28
C       7.02       7.23       4.69
C       7.82       7.47      -0.71
C      11.26      10.79       3.77
C       7.76       7.39       0.70
C       7.04       6.31       1.29
C       6.31       5.40       0.57
O       9.95       8.55       5.73
O       5.37       5.15      -5.79
O       8.29      10.12       5.66
O       6.88       6.85      -5.65
O      12.19      11.41       3.28
