24

H       5.97       6.68       6.71
H       4.62       4.97       6.14
H      10.54       7.73       3.73
C       8.00      10.32       8.50
C       6.53       5.32       5.14
C       7.47       4.99       4.13
C       8.61       5.82       4.00
C       8.85       6.90       4.87
C       7.89       7.21       5.87
C       6.73       6.42       5.97
C       7.31       3.90       3.25
C       8.02       8.30       6.76
C       7.99       9.22       7.56
C       7.29       2.99       2.44
C       7.29       1.91       1.48
C       5.31       4.51       5.39
C      10.10       7.70       4.75
Cl       9.76       5.44       2.77
O       6.86      10.73       8.89
O       9.13      10.76       8.85
O       8.43       1.48       1.13
O       6.15       1.51       1.08
O       5.05       3.43       4.87
O      10.62       8.28       5.69
