20

H       7.59       1.92       8.91
H       7.50      -0.29      11.06
H       8.85       0.87      10.82
H       5.82       3.56      14.35
H       6.22       0.79       9.18
C       7.63       1.46      14.18
C       7.07       1.77      11.78
C       6.90       2.16      13.10
C       5.99       3.22      13.33
C       5.32       3.84      12.26
C       5.49       3.42      10.92
C       6.38       2.37      10.73
C       6.96       1.44       9.68
C       7.75       0.77      10.87
C       4.73       3.96       9.74
I       3.92       5.36      12.71
O       8.53       0.64      13.78
O       3.88       3.17       9.24
O       7.34       1.68      15.41
O       5.03       5.12       9.30
