33

H      12.39       6.08      45.84
H       8.90       3.77      45.24
H      10.96       2.82      43.61
H       9.42       8.94      46.52
H      13.07       8.88      48.62
H      12.19       6.28      48.34
H       6.99       6.71      47.80
H       9.12       6.82      44.13
H       6.59       7.91      43.78
B       9.68       6.05      46.87
H       8.92       3.28      47.57
H       7.98       5.19      51.21
H       9.22       7.03      49.51
N      10.45       5.14      45.89
N      12.06       4.40      44.56
N      10.56       7.25      47.29
N      11.22       9.34      47.58
N       8.41       6.57      46.16
N       6.39       7.45      45.88
N       9.26       5.32      48.18
N       8.29       3.86      49.54
C      11.74       5.30      45.48
C       9.94       4.07      45.16
C      10.95       3.62      44.34
C      10.28       8.56      47.06
C      12.16       8.51      48.17
C      11.75       7.21      48.01
C       7.23       6.89      46.75
C       8.31       6.96      44.83
C       7.06       7.51      44.67
C       8.82       4.05      48.34
C       8.38       5.07      50.20
C       8.98       5.98      49.37
