36

N      16.99       8.84       5.64
C      15.67       9.01       5.82
C      17.58       8.04       6.53
N      16.95       7.36       7.50
N      14.95       8.45       6.81
C      15.64       7.62       7.61
H      11.86      10.99       3.98
C      19.06       7.91       6.46
N      21.84       7.77       6.43
C      19.80       8.64       5.52
N      13.57       5.68      10.81
H      12.97       9.49       5.63
H      16.76      10.58       3.86
C      21.19       8.53       5.54
C      21.13       7.07       7.34
H      15.50      12.00       2.25
C      19.74       7.11       7.39
H      19.30       9.28       4.80
C      14.91       6.96       8.72
H      21.82       9.09       4.84
H      21.72       6.50       8.06
C      15.62       6.28       9.72
H      19.19       6.56       8.14
C      14.91       5.65      10.74
H      16.71       6.25       9.72
C      12.88       6.36       9.86
C      13.52       7.01       8.81
H      15.44       5.12      11.53
H      11.80       6.37       9.95
H      12.92       7.53       8.06
C      12.94      10.86       3.98
C      13.57      10.03       4.90
C      14.96       9.90       4.86
C      15.67      10.62       3.90
C      14.97      11.42       3.01
N      13.63      11.54       3.05
