22

O       1.13       3.38       3.80
O       3.00       2.71       2.72
H       1.97       0.90       1.51
H       1.96      -1.25       0.29
H       2.00      -3.42       4.01
H       2.01      -3.41       1.54
H       2.04      -0.02       7.40
H       1.93       2.14       6.15
C       1.94      -2.49       6.42
C       2.03       2.52       3.53
C       1.98       1.20       4.23
C       2.00      -0.02       3.48
C       1.96       1.19       5.61
C       1.98      -0.04       2.06
C       1.98      -1.24       1.38
C       2.00      -1.23       5.63
C       2.01      -0.02       6.31
C       1.98      -1.26       4.20
C       1.99      -2.48       3.47
C       2.00      -2.47       2.09
O       0.98      -3.28       6.18
O       2.84      -2.69       7.30
