20

S      12.86       7.60      14.22
S      13.05       8.45      10.14
N      12.87       5.20      10.98
N      12.58      10.84      13.35
C      12.96       4.87      14.25
O      13.39       3.80      13.74
O      12.61       5.07      15.47
C      12.98      11.19      10.13
O      13.33      12.27      10.68
O      12.72      11.00       8.89
C      12.95       6.23      12.01
C      12.83       9.81      12.35
C      12.90       6.08      13.39
C      12.91       9.97      10.97
C      12.91       8.46      12.74
C      13.00       7.60      11.63
O      13.34       5.53       9.87
O      12.31       4.14      11.24
O      12.99      10.57      14.50
O      11.94      11.85      13.04
