26

H      25.63       8.08      18.57
H      25.57       6.71      23.30
O      25.61       3.14      16.53
O      25.59      11.64      25.34
O      25.58      12.97      23.48
O      25.62       1.82      18.39
F      27.77       5.90      21.47
F      23.43       8.89      20.40
C      25.59       7.01      22.25
C      25.62       7.78      19.62
C      25.61       8.51      21.76
C      25.59       6.27      20.11
C      25.61       9.67      22.57
C      25.59      11.85      24.09
C      25.61       2.93      17.78
C      26.68       6.65      21.21
C      25.59       5.12      19.30
C      24.52       8.14      20.66
C      26.74       8.13      20.67
C      24.46       6.65      21.20
C      25.60      10.67      23.25
C      25.60       4.12      18.62
C      27.91       8.89      20.42
C      23.29       5.89      21.45
N      28.89       9.50      20.22
N      22.31       5.28      21.65
