34

H      18.35       3.90      12.72
H      18.18      -2.90      13.33
H      22.23       4.39      14.43
H      14.20      -3.36      11.88
H      17.16       2.73      11.66
H      19.82      -1.84      13.34
H      15.28       1.29      11.06
H      21.69      -0.39      13.94
C      16.28      -4.68      13.08
C      20.00       5.74      13.62
C      16.21      -3.24      12.66
C      20.26       4.26      13.55
C      15.04      -1.38      11.68
C      21.65       2.35      13.99
C      15.05      -2.71      12.05
C      21.47       3.72      14.02
C      17.32      -2.44      12.86
C      19.27       3.43      13.04
C      17.33      -1.08      12.49
C      19.43       2.03      13.01
C      16.15      -0.52      11.89
C      20.64       1.46      13.53
C      18.47      -0.23      12.76
C      18.37       1.16      12.55
C      17.21       1.67      11.91
C      19.70      -0.76      13.25
C      16.15       0.87      11.57
C      20.76       0.04      13.59
Br      13.45      -0.70      10.87
Br      23.30       1.66      14.66
O      15.26      -5.41      12.87
O      20.99       6.50      13.88
O      17.38      -5.06      13.59
O      18.80       6.12      13.41
