30

C      12.76       5.14      14.99
H      14.57       4.70      11.43
I      19.00       6.52      16.21
H      14.23       2.38      12.15
I      19.23       6.85      12.58
N      14.35       4.49      12.40
H      14.16       4.40      16.30
H      12.68       3.27      12.06
H      11.95       4.55      15.42
H      12.61       5.21      13.90
H      12.71       6.17      15.40
N      14.03       4.49      15.29
O      15.67       7.10      19.84
H      13.49       3.01      13.63
O      17.31       3.89       8.31
O      14.28       5.28      19.83
O      18.54       5.80       8.53
C      15.21       6.04      19.33
C      16.95       5.30      10.12
C      15.71       5.64      18.04
C      15.33       4.96      13.26
C      15.19       4.95      14.68
C      17.47       5.92      14.91
C      17.56       6.04      13.53
C      16.50       5.54      12.70
C      17.62       4.99       8.90
C      16.27       5.41      15.48
C      16.04       5.50      16.87
C      16.71       5.45      11.31
C      13.65       3.22      12.57
