12

O       2.45       7.49      15.03
O       0.16      14.51       7.24
O       2.41      14.14       7.06
O       0.23       7.94      15.28
C       1.26      13.96       7.58
C       1.39       8.94      13.57
C       1.36       8.06      14.70
C       1.36       9.72      12.62
C       1.24      12.25       9.63
C       1.31      10.58      11.59
C       1.27      11.38      10.65
C       1.22      13.05       8.70
