34

H       6.41       0.93       9.20
H       2.47      -1.98       8.98
H       7.39      -0.31      12.10
H       5.72      -0.90      11.98
H       6.85      -1.68      13.10
H       6.56      -3.10      11.05
H       8.22      -2.52      11.20
H       7.44      -2.38       8.87
H       7.82      -0.77       9.50
H      -0.71       0.84      10.54
H      -0.13       2.04      11.71
H      -0.21       2.45       9.99
H       1.68       0.36      11.25
H       2.17       1.97      10.70
H       1.53       1.37       8.36
H       1.02      -0.24       8.90
C       4.29       2.36       8.75
C       4.66      -3.42       9.00
C       5.55       0.27       9.13
C       3.33      -1.32       9.02
C       5.74      -1.10       9.23
C       3.13       0.06       8.98
C       4.60      -1.92       9.10
C       4.29       0.87       8.96
C       7.12      -1.61       9.58
C       7.19      -2.19      11.01
C       6.76      -1.22      12.10
C       1.72       0.58       9.10
C       1.46       1.15      10.51
C       0.03       1.64      10.70
O       3.19       2.95       8.48
O       5.75      -3.96       8.64
O       5.42       2.95       8.83
O       3.57      -4.05       9.25
