28

H      13.78       5.85       8.18
H      18.47       6.49       7.45
C      18.82       9.24       9.47
C      12.70       7.94       9.57
H      16.18       5.61       7.51
C      16.45       8.46       9.41
H      14.73       9.40      10.35
H      20.19      11.95      11.05
H      16.09      10.66      11.01
C      15.87       6.44       8.14
H      20.17       8.07       8.24
H      17.79      12.29      11.69
C      14.14       7.67       9.29
C      16.84       7.38       8.56
C      19.42      11.25      10.71
C      18.08      11.44      11.07
C      17.12      10.52      10.68
C      18.20       7.28       8.14
C      19.15       8.17       8.57
C      15.09       8.58       9.74
C      14.54       6.57       8.51
O      22.08      10.82       9.69
O      21.59       8.63       9.94
C      19.80      10.15       9.96
O      12.42       9.14       9.93
O      11.86       7.00       9.41
C      21.27       9.86       9.83
C      17.45       9.42       9.86
