22

O      22.32       5.72       8.33
O      22.62       4.49      10.21
H      23.67       5.95      11.85
H      20.52       7.05       8.37
H      19.10       8.98       7.88
H      19.24      11.05       9.30
H      20.78      11.13      11.20
H      23.75       7.98      13.31
C      20.58       7.93       9.00
C      19.79       9.02       8.72
C      19.87      10.18       9.52
C      20.73      10.23      10.60
C      21.55       9.12      10.92
C      22.41       5.59       9.60
C      21.49       7.94      10.09
C      22.31       6.81      10.44
C      23.08       6.83      11.59
C      23.13       7.97      12.41
C      22.41       9.10      12.07
C      22.57      10.30      12.96
O      22.71      11.43      12.39
O      22.57      10.08      14.22
