16

O      17.20       2.83       9.61
C      18.32       1.23      10.91
C      19.00      -0.56      12.18
C      17.61      -0.76      12.13
O      19.46       3.04       9.95
C      18.27      -2.57      13.42
Cl      15.55      -2.37      12.92
C      18.29      -3.80      14.22
S      19.80      -1.79      13.09
S      16.80       0.44      11.22
O      19.46      -4.24      14.55
O      17.18      -4.32      14.54
C      18.33       2.46      10.10
H      20.43       0.98      11.38
C      17.19      -1.91      12.84
C      19.41       0.60      11.48
