16

O       8.26      12.35       7.68
C      11.17      10.89       6.02
H      14.32      12.77       8.72
C      13.98      12.16       7.90
C      14.84      11.50       7.04
C      12.63      11.92       7.52
C      12.52      11.08       6.39
C      10.28      11.56       6.84
O      16.89      12.25       7.94
S      11.10      12.45       8.10
S      14.05      10.59       5.79
O       8.23      11.03       5.81
C       8.82      11.64       6.77
C      16.31      11.54       7.04
O      16.88      10.87       6.11
F      10.82      10.13       4.97
