15

C      11.42       9.08      10.32
C      12.34       8.02      10.39
C      12.11       6.99      11.31
C      13.54       8.04       9.52
O      13.38       8.43       8.32
O      14.66       7.71      10.05
O      10.16       4.89      12.46
N      10.37       9.19      11.14
O      10.59       6.19      14.29
H       9.31       8.33      12.69
H      11.56       9.87       9.58
H      12.80       6.15      11.37
C      10.56       5.96      13.03
C      10.99       7.08      12.13
C      10.17       8.22      12.03
