73

N       1.02       0.31       4.58
H      -0.67       0.24       6.60
N      -1.02       4.68       7.49
H      -1.53       2.18       7.88
H       0.84       4.84       5.47
N      -2.79       8.48      10.34
H       1.72       2.91       4.20
N       2.49      -4.40       7.26
H      -2.80       5.27       9.34
N       3.91      -8.50       9.90
N       2.19       0.26      -0.92
H      -4.10       6.91      10.67
H      -1.33       9.90       9.98
N       3.46       0.02      -5.86
O       0.74       6.16       7.63
H       0.06       8.40       8.51
H       0.05      -2.13       4.04
O       0.79      -5.92       6.97
H       0.66      -4.25       5.21
O       3.30      -1.75      -1.18
H       3.17      -2.01       7.90
H       2.53       0.10       6.76
H       1.39      -8.25       7.68
H       2.53      -9.87       9.17
H       5.18      -7.00      10.54
H       4.14      -5.23       9.14
H      -0.11       1.87       2.67
H       0.42       1.80       0.27
H       3.36      -1.27       0.98
H       2.86      -1.17       3.39
H       2.69       1.76      -3.08
H       3.12       2.03      -5.50
H       3.77      -2.02      -6.01
H       3.45      -2.46      -3.55
H      -2.01       4.50       7.70
H       3.49      -4.31       7.48
H       1.72       0.98      -1.46
C       0.57       1.44       5.30
C      -0.33       1.25       6.36
C      -0.81       2.33       7.08
C      -0.41       3.64       6.76
C       0.51       3.84       5.72
C       1.00       2.75       5.00
C      -0.44       5.83       7.90
C      -1.29       6.72       8.75
C      -2.45       6.30       9.40
C      -3.17       7.20      10.17
C      -1.63       8.88       9.77
C      -0.86       8.04       8.97
C       1.27      -0.88       5.31
C       0.73      -2.11       4.90
C       1.07      -3.30       5.54
C       1.97      -3.26       6.62
C       2.47      -2.03       7.06
C       2.12      -0.85       6.42
C       1.91      -5.61       7.43
C       2.67      -6.59       8.26
C       2.23      -7.92       8.29
C       2.87      -8.83       9.10
C       4.35      -7.23       9.87
C       3.76      -6.25       9.08
C       1.33       0.34       3.21
C       0.66       1.19       2.31
C       0.97       1.15       0.95
C       1.93       0.26       0.45
C       2.61      -0.58       1.35
C       2.31      -0.53       2.71
C       2.85      -0.71      -1.66
C       3.00      -0.40      -3.12
C       2.90       0.88      -3.68
C       3.15       1.04      -5.04
C       3.54      -1.20      -5.32
C       3.34      -1.46      -3.97
