14

C       1.48       2.61      20.74
O       0.88      -0.23      19.05
C       2.52       4.35      19.60
C       2.04       3.81      18.40
N       2.22       3.74      20.75
C       1.02       2.09      19.52
N       1.30       2.70      18.35
C       1.28       1.97      22.09
C       0.25       0.80      19.40
H       3.14       5.24      19.64
O       1.81       2.61      23.08
H       2.28       4.30      17.46
O       0.67       0.89      22.19
O      -1.02       0.85      19.55
