28

C      27.16       9.30      11.20
F      27.82      20.17      14.49
F      26.50      17.97      18.54
F      26.53      15.64      17.25
F      26.75      11.95      15.30
F      27.57      14.18      11.19
C      27.16      20.49      17.28
F      26.77       9.60      14.06
F      27.79      17.83      13.23
F      27.54      11.86       9.90
C      27.16      19.18      16.57
C      26.85      17.98      17.24
C      26.85      16.76      16.58
C      27.16      16.67      15.21
C      27.47      17.87      14.54
C      27.47      19.09      15.20
C      27.16      15.43      14.53
C      27.16      14.36      13.95
C      27.16      13.13      13.28
C      26.95      11.92      13.97
C      26.95      10.70      13.31
C      27.16      10.61      11.92
C      27.37      11.83      11.23
C      27.37      13.05      11.89
O      26.55       8.34      11.77
O      27.77       9.25      10.09
O      27.34      20.46      18.55
O      26.98      21.53      16.57
