13

H       7.24       9.38       3.98
H       9.89      13.30       1.04
C       9.61      12.35       2.93
N       8.72      12.21       4.92
H       7.29      10.06       5.64
C      10.48      12.77       1.81
N       9.63      12.90       4.15
H       6.14      10.70       4.42
C       7.15      10.30       4.58
N       8.71      11.34       2.89
H      11.29      13.42       2.16
C       8.18      11.27       4.13
H      10.89      11.88       1.32
