22

H       2.18       1.53       8.00
H       2.19       0.03       7.03
H       3.07       1.48       6.48
H       6.82      -3.81      10.68
H       7.54      -2.18      10.50
H       7.82      -3.42       9.27
C       4.75      -4.80       8.72
C       5.14       2.66       8.55
C       4.02       0.40       8.07
C       5.85      -2.54       9.23
C       5.05       1.20       8.58
C       4.84      -3.34       8.71
C       5.55      -1.18       8.99
C       4.33      -0.96       8.31
C       2.80       0.88       7.36
C       7.07      -3.01       9.96
S       6.35       0.31       9.33
S       3.54      -2.45       7.96
O       5.83      -5.44       8.98
O       6.26       3.20       8.82
O       4.07       3.30       8.24
O       3.61      -5.33       8.49
