28

H       3.21       4.26       4.78
H       3.06       4.53       2.29
H       7.06       6.17       2.26
H       7.20       5.84       4.73
H       2.96       4.76      -2.12
H       2.95       4.88      -4.62
H       6.97       6.38      -4.58
H       6.98       6.33      -2.07
C       4.94       5.75      -6.23
C       5.31       4.78       6.36
C       5.22       5.01       4.89
C       4.04       4.67       4.21
C       3.96       4.82       2.83
C       5.06       5.35       2.11
C       6.22       5.74       2.81
C       6.30       5.56       4.19
C       5.00       5.46       0.70
C       4.97       5.50      -0.52
C       4.96       5.55      -1.93
C       3.83       5.13      -2.66
C       3.83       5.19      -4.05
C       4.96       5.65      -4.74
C       6.10       6.04      -4.02
C       6.10       6.00      -2.64
O       3.82       5.55      -6.81
O       4.24       4.44       6.96
O       6.46       4.92       6.91
O       6.04       6.04      -6.80
