10

H       7.82       6.48       3.82
C       9.89       4.86       6.55
C       9.83       6.06       4.58
C       8.49       4.87       6.60
C       8.44       6.04       4.60
N       7.79       5.46       5.62
N      10.54       5.47       5.54
H      10.49       4.39       7.32
H      10.39       6.57       3.79
H       7.93       4.42       7.41
