42

O       5.49       1.82       3.85
C       5.45      -4.60       4.80
C       6.59      -5.31       5.22
H       3.40      -7.28       4.15
C       5.42      -7.39       4.88
H       7.44      -7.29       5.59
C       8.85      -5.23       6.01
H       9.58      -4.45       6.22
C       5.42      -3.12       4.81
H       8.65      -5.82       6.92
C       5.15      -0.33       4.80
H       9.24      -5.89       5.22
C       4.98      -2.44       5.96
H       4.46      -0.51       6.82
C       4.83      -1.05       5.96
H       5.89      -0.38       2.79
C       5.64      -0.98       3.66
H       1.31      -4.43       3.44
C       5.74      -2.37       3.67
H       2.18      -5.87       2.80
C       2.03      -5.22       3.68
H       1.64      -5.83       4.52
C       6.45      -2.40       1.38
H       6.71      -3.17       0.65
C       4.17      -2.61       8.21
H       5.58      -1.82       1.02
C       4.93       1.14       4.78
H       7.30      -1.72       1.53
O       4.35      -9.45       4.41
H       3.97      -3.42       8.91
O       7.66      -4.55       5.57
H       4.90      -1.91       8.65
O       4.70      -3.23       7.03
H       3.24      -2.07       7.98
O       3.23      -4.54       4.05
C       5.38      -8.88       4.93
O       6.14      -3.11       2.58
C       4.30      -5.31       4.42
O       6.35      -9.48       5.50
C       6.58      -6.71       5.26
C       4.28      -6.71       4.45
O       4.18       1.61       5.70
