56

C       2.50       4.72      15.74
C       4.18      -0.52      11.15
C       3.62       4.51      14.92
C       3.08       0.35      11.28
C       4.76       5.35      15.04
C       1.93       0.14      10.46
C       4.69       6.35      16.01
H       1.64       4.06      15.61
H       5.02      -0.36      11.82
C       2.02      -0.88       9.51
C       3.58       6.56      16.83
H       5.54       7.02      16.13
C       3.14      -1.69       9.34
H       1.17      -1.05       8.86
C       3.21       1.45      12.26
C       3.52       3.41      13.95
C       1.20       5.81      17.56
C       5.47      -2.42      10.17
C       5.96       5.25      14.14
C       5.71       5.79      12.72
C       6.96       5.74      11.85
C       0.63       0.90      10.51
C       0.59       2.16       9.63
C      -0.79       2.81       9.65
H       0.51       5.00      17.30
H       1.44       5.74      18.63
N       4.55       2.54      13.79
H       0.68       6.77      17.44
N       4.38       1.54      12.95
N       2.34       3.31      13.28
N       2.20       2.33      12.41
H       6.13      -2.19      11.02
H       5.20      -3.49      10.23
H       6.04      -2.31       9.24
O       1.95      -3.04       7.80
O       4.81       8.08      18.17
H       7.77       6.34      12.29
H       7.34       4.71      11.77
H       6.76       6.12      10.84
H       4.90       5.21      12.25
H       5.33       6.83      12.80
H       6.78       5.82      14.60
H       6.30       4.20      14.06
O       2.54       8.09      18.30
H      -1.57       2.10       9.32
H      -1.05       3.12      10.68
H       1.35       2.87       9.98
H       0.86       1.88       8.59
H      -0.16       0.22      10.14
H       0.36       1.18      11.53
H      -0.84       3.70       9.01
C       3.10      -2.68       8.22
C       3.65       7.66      17.84
O       4.22      -3.05       7.74
C       2.44       5.72      16.71
C       4.25      -1.54      10.20
