22

H       9.88      10.57       4.96
H       7.95       6.75       4.70
H       5.92       8.89       8.53
H       7.87      12.70       8.81
C       9.82       8.30       3.54
C       6.00      11.15       9.97
C       9.16       9.86       5.36
C       8.06       7.70       5.22
C       7.30       8.01       6.32
C       7.42       9.25       7.00
C       6.65       9.59       8.14
C       7.76      11.75       8.28
C       8.52      11.44       7.19
C       8.39      10.20       6.49
C       8.99       8.64       4.73
C       6.81      10.81       8.76
Br       9.80      12.73       6.59
Br       6.05       6.70       6.95
O      10.68       9.16       3.14
O       5.17      10.28      10.39
O       9.62       7.14       3.03
O       6.22      12.29      10.49
