16

C      18.49       8.29      25.72
C      18.47       9.51      29.12
C      18.48       6.97      26.17
C      18.47      10.81      28.65
C      18.48       8.58      28.06
C      18.49       9.21      26.79
H      18.47       9.27      30.18
C      18.48       5.71      25.41
O      18.53       5.81      24.14
S      18.47       6.86      27.91
S      18.48      10.92      26.91
C      18.46      12.04      29.44
O      18.42       4.64      26.10
O      18.45      13.14      28.78
O      18.45      11.92      30.71
Cl      18.51       8.81      24.09
