40

H      -1.64      17.60       4.52
H      -5.58      18.46       2.96
H      -1.45      21.90       5.78
H      -5.76      21.82       5.93
O      -2.62      25.69       8.63
O      -4.60      26.24       7.62
H      -0.45      15.39       1.81
O      -4.75      13.91       1.46
O      -2.47      13.91       1.47
H      -6.77      14.99       2.54
H      -0.67      23.02       8.35
H      -6.54      24.59       5.51
O      -0.25      15.13       2.73
O      -1.30      14.61       4.63
O      -6.97      15.64       1.82
O      -5.92      16.96       0.37
C      -3.61      25.48       7.85
O      -0.22      23.73       7.85
O      -0.74      25.28       6.32
C      -3.61      14.41       1.74
O      -6.99      24.54       6.38
O      -6.47      24.07       8.50
C      -3.61      15.71       2.46
C      -2.49      16.09       3.23
C      -2.49      17.32       3.90
C      -3.61      18.17       3.82
C      -4.73      17.78       3.05
C      -4.73      16.56       2.38
C      -3.61      19.41       4.50
C      -3.61      20.48       5.09
C      -3.61      21.71       5.78
C      -2.39      22.36       6.09
C      -2.39      23.58       6.76
C      -3.61      24.18       7.14
C      -4.83      23.54       6.83
C      -4.83      22.32       6.15
C      -1.32      15.18       3.55
C      -5.90      16.36       1.43
C      -1.07      24.30       6.96
C      -6.14      24.09       7.33
