16

H       8.88       7.47       6.93
H      11.40       7.59       7.14
H      12.56       4.06       9.93
H      11.32       2.10      10.83
H       8.91       1.77      10.29
H       7.69       3.44       8.93
C      11.50       3.91       9.70
C      10.81       2.83      10.21
C       9.43       2.65       9.91
C       8.74       3.57       9.16
C       9.42       4.71       8.66
C      10.83       4.85       8.89
C      10.84       6.78       7.61
C       9.44       6.69       7.46
N      11.52       5.89       8.31
N       8.75       5.67       7.96
