17

H       6.87      10.84       1.33
H       8.52      10.21       1.25
N       8.31      12.05       2.22
C       7.03      11.11      -3.95
C       7.69      11.71      -2.72
C       7.55      10.93      -1.41
C       8.08      11.75      -0.24
C       7.92      11.13       1.15
N       7.55       9.80      -4.39
H       5.94      11.00      -3.80
H       7.15      11.81      -4.79
H       8.76      11.89      -2.94
H       7.25      12.71      -2.59
H       8.08       9.97      -1.47
H       6.48      10.69      -1.24
H       7.56      12.73      -0.23
H       9.15      11.98      -0.41
