26

H       3.91      -1.67      13.09
H       3.43       2.27      10.47
C       1.99       4.51      10.16
C       2.30      -0.69      14.14
C       1.89       3.50      11.26
C       0.69       2.60      13.19
C       0.88       3.59      12.25
C       2.68       2.37      11.25
C       2.53       1.34      12.20
C       1.53       1.45      13.24
C       1.48       0.43      14.24
C       3.25      -0.80      13.11
C       3.38       0.19      12.17
C       2.24      -1.81      15.15
N      -0.47       2.78      14.10
N       0.04       4.81      12.29
Cl       0.53       0.61      15.68
Cl       4.60       0.04      10.97
O       3.15       4.91       9.85
O       0.89       4.82       9.61
O       3.34      -2.10      15.71
O       1.11      -2.35      15.35
O      -1.43       2.02      13.91
O      -0.40       3.69      14.92
O       0.64       5.87      12.46
O      -1.18       4.67      12.17
