12

O      -0.45      -1.55      11.51
O      -7.59      -7.00       5.86
C      -0.39      -2.77      11.12
C      -7.64      -5.79       6.25
C      -1.52      -3.24      10.36
C      -6.52      -5.32       7.01
C      -2.48      -3.64       9.71
C      -5.56      -4.92       7.65
C      -3.53      -4.08       9.01
C      -4.50      -4.48       8.36
O       0.54      -3.61      11.32
O      -8.58      -4.95       6.05
