16

C      18.44       9.73       3.94
C      18.34      13.30       4.21
C      18.39       9.59       5.32
C      18.41      13.44       2.83
C      18.36      11.95       4.62
C      18.43      11.08       3.52
C      18.38       8.37       6.13
O      18.36       7.26       5.50
O      18.40       8.54       7.40
S      18.31      11.13       6.14
F      18.51       8.71       3.08
S      18.49      11.90       2.01
F      18.27      14.32       5.07
O      18.55      14.51       0.76
O      18.26      15.77       2.64
C      18.41      14.66       2.03
