40

H      32.54       2.53      18.20
C      31.68       2.03      18.64
C      30.71       1.47      17.82
C      31.57       1.97      20.04
H      30.40       1.29      21.70
C      30.47       1.33      20.62
C      29.47       0.76      19.83
C      27.72      -0.26      16.89
C      29.59       0.82      18.41
C      26.83      -0.77      14.65
C      25.83      -1.34      13.87
C      24.73      -1.98      14.45
C      28.58       0.24      17.60
C      26.71      -0.83      16.07
C      24.62      -2.04      15.84
C      25.59      -1.48      16.67
H      27.77       0.80      21.15
H      27.60      -0.33      19.79
H      28.66      -0.73      21.16
H      31.81       1.08      16.00
H      30.04       1.09      15.79
H      30.93       2.62      16.01
H      25.38      -2.63      18.48
H      26.25      -1.09      18.69
H      24.49      -1.10      18.48
H      27.65       0.73      13.33
H      28.71       0.31      14.70
H      28.53      -0.81      13.33
C      28.31       0.09      20.51
C      30.87       1.57      16.33
C      25.43      -1.58      18.16
C      27.99      -0.10      13.97
H      25.90      -1.30      12.78
H      23.76      -2.54      16.28
O      22.69      -3.15      14.18
O      23.84      -2.49      12.32
C      23.67      -2.59      13.59
C      32.63       2.58      20.90
O      32.47       2.49      22.16
O      33.60       3.15      20.30
