16

C      18.39       8.27      25.67
C      18.23       9.51      29.04
C      18.37       6.96      26.11
C      18.24      10.81      28.57
C      18.28       8.59      27.98
C      18.33       9.22      26.71
H      18.18       9.27      30.10
C      18.39       5.72      25.33
O      18.21      13.14      28.70
O      18.48       5.82      24.06
O      18.16      11.92      30.64
O      18.32       4.63      26.01
S      18.28       6.87      27.85
S      18.32      10.93      26.84
C      18.20      12.05      29.37
F      18.45       8.64      24.37
