14

O       9.23      11.12       6.58
O       4.22       6.04       7.00
C       5.17       6.07       7.84
O       8.02      12.01       8.30
H       7.76       9.19       5.58
H       6.87       9.78       8.47
H       5.72       7.65       5.77
H       6.83       7.25       8.62
C       8.29      11.08       7.47
O       5.32       5.22       8.81
C       7.26       9.00       6.54
C       7.44       9.87       7.55
C       6.33       7.89       6.64
C       6.18       7.13       7.75
