40

H      10.44      13.17      16.66
H       6.17      13.17      16.65
H      10.45      22.58      16.64
H       6.17      22.58      16.64
H       5.15      15.57      17.52
H       5.87      16.92      16.62
H       5.16      15.55      15.75
H      11.45      15.55      15.75
H      10.75      16.92      16.64
H      11.46      15.55      17.52
H       5.16      20.19      15.74
H       5.87      18.83      16.64
H       5.16      20.20      17.51
H      11.46      20.19      17.52
H      10.75      18.83      16.63
H      11.46      20.19      15.75
C       5.75      15.83      16.63
C      10.87      15.83      16.64
C       5.75      19.92      16.63
C      10.87      19.91      16.63
O       9.44      10.95      16.69
O       7.17      10.95      16.69
O       7.18      24.80      16.65
O       9.45      24.80      16.64
C       8.30      11.53      16.68
C       8.31      24.22      16.64
C       8.30      13.03      16.66
C       9.51      13.73      16.66
C       9.54      15.13      16.64
C       8.31      15.84      16.64
C       7.07      15.13      16.64
C       7.10      13.73      16.65
C       8.31      17.26      16.63
C       8.31      18.49      16.63
C       8.31      19.91      16.63
C       9.54      20.62      16.63
C       9.52      22.01      16.63
C       8.31      22.72      16.63
C       7.11      22.02      16.63
C       7.08      20.62      16.63
