60

C       0.60       4.59      15.78
C      -0.33       5.43       9.41
C      -0.91       3.06      -2.74
H      -1.79       3.88       9.73
C      -0.99       4.72       2.16
C       1.57       7.46      11.99
H       1.00       3.77      16.37
C      -0.16       5.54       5.55
C      -1.55       5.20      -4.32
H      -1.82       6.02      -4.99
C       1.03       5.84      -0.87
H      -0.53       7.60      16.43
C      -3.14       2.91      -0.42
C      -0.03       5.33       1.33
H       0.76       3.61      13.88
C      -0.93       4.91       3.60
H      -0.83       7.62      13.94
H      -2.72       3.43       2.18
C      -0.24       6.75      15.82
H      -1.71       6.35      -2.51
C       0.47       4.51      14.40
H       1.11       7.05       9.42
S       0.71       6.16       6.90
S      -2.12       4.16       4.66
C      -0.04       5.61      13.69
N       0.26       5.69      16.48
N      -1.29       4.02      -4.90
C      -0.45       5.36       7.96
H      -0.76       2.04      -4.66
N      -1.41       4.68       7.35
N       0.03       5.61       4.21
H      -1.95       3.90      13.44
H      -1.52       2.63      12.29
C      -0.40       6.74      14.44
H      -2.90       3.66      11.96
H      -0.63       2.19      -2.15
C      -1.17       4.29      -2.12
C      -0.16       5.56      12.21
H       1.50       7.56      13.08
C      -1.98       3.92       1.55
H       1.40       8.44      11.53
C      -2.04       3.75       0.17
H       2.60       7.17      11.74
C       0.61       6.45      11.42
C      -1.50       5.37      -2.94
H       0.96       5.62      -1.94
H       2.02       5.50      -0.52
C       0.52       6.36      10.03
H       1.01       6.93      -0.76
H      -3.82       2.56       0.37
C      -1.09       4.42      -0.64
H      -2.75       2.03      -0.94
H      -3.74       3.47      -1.15
H       0.76       5.92       1.81
C      -0.98       2.96      -4.12
C      -0.06       5.19      -0.06
C      -1.26       4.79       6.01
C      -1.10       4.58      10.21
C      -1.02       4.61      11.60
C      -1.89       3.66      12.38
