20

H       1.80      -0.07       1.66
H      -1.89       0.15      -1.67
H       1.85       1.65      -0.15
H      -1.94      -1.57       0.13
C       0.00       3.79      -4.01
C      -0.10      -3.66       4.04
C       1.03       0.94      -0.08
C      -1.11      -0.86       0.06
C      -0.02       1.01      -1.03
C      -0.07      -0.93       1.01
C      -1.09       0.09      -0.94
C       1.00      -0.02       0.92
C       0.01       1.98      -2.06
C      -0.10      -1.90       2.05
C      -0.11      -2.71       2.95
C       0.01       2.82      -2.94
O       1.13       4.21      -4.41
O      -1.23      -4.03       4.48
O      -1.15       4.12      -4.45
O       1.05      -4.01       4.46
