41

H       6.32       4.25       4.95
H       6.25       2.82       2.90
H       1.36       2.86       3.20
H       0.82       2.55       8.45
H       2.40       3.09       7.88
H       3.07       0.73       7.37
H       2.55       0.88       9.07
H       1.45       0.16       7.86
H       0.89       4.86       3.39
H       2.61       4.99       3.83
H       2.14       7.03       5.16
H       1.45       7.23       3.53
H       0.38       6.83       4.90
H       2.15       0.16       5.38
H       2.01      -0.70       3.83
H      -0.43      -1.16       4.35
H       0.64      -1.85       5.59
H      -0.23      -0.32       5.91
C       4.42       4.75       6.73
C       3.24       3.01       5.27
C       4.36       3.78       5.60
C       5.44       3.67       4.71
C       5.41       2.85       3.58
C       4.28       2.10       3.24
C       3.19       2.24       4.11
C       1.68       2.22       4.04
C       1.74       3.06       5.43
C       4.24       1.32       1.98
C       1.64       2.32       7.76
C       2.21       0.94       8.02
C       1.59       5.18       4.18
C       1.38       6.65       4.47
C       1.45      -0.12       4.58
C       0.29      -0.91       5.14
O       3.31       5.04       7.29
O       5.55       5.23       7.07
O       3.09       0.98       1.54
O       5.37       1.07       1.43
O       1.05       2.42       6.43
O       1.31       4.44       5.39
O       0.92       1.06       3.94
