14

C       9.20       6.74       6.32
C       9.25       5.43       4.49
C      10.64       5.45       4.51
C      10.60       6.76       6.35
C      10.66       7.62       7.58
C       9.07       7.62       7.54
H       8.71       4.88       3.72
H      11.22       4.91       3.76
N       8.50       6.09       5.40
N      11.35       6.13       5.45
H       8.57       7.14       8.39
H       8.60       8.59       7.36
H      11.11       7.13       8.45
H      11.14       8.60       7.44
