16

C       2.00      10.11       5.48
C       1.80       8.47       3.18
C       3.04      10.08       4.53
C       0.76       8.50       4.13
C       2.93       9.26       3.41
C       0.87       9.32       5.25
O       2.92       7.25       1.51
O       0.68       7.45       1.34
H       3.74       9.23       2.68
H       0.06       9.35       5.97
C       2.01      10.92       6.73
Cl       4.46      11.06       4.65
Cl      -0.66       7.51       4.00
C       1.79       7.65       1.92
O       3.12      11.12       7.31
O       0.88      11.33       7.15
