16

N       8.59       5.55      22.15
N      11.45       5.64      22.27
H      12.35       4.38      24.28
N      11.36       4.20      24.10
H      10.84       3.59      24.72
C       9.33       6.27      21.30
C      10.71       4.90      23.15
C      10.71       6.30      21.37
C       9.28       4.86      23.07
H       8.71       4.28      23.79
C      10.84       7.24      20.19
C       9.25       7.19      20.11
H      11.28       8.22      20.42
H      11.37       6.81      19.33
H       8.74       8.14      20.30
H       8.84       6.74      19.20
