26

C       4.15      12.99       2.64
C       4.30      14.45       2.68
H       2.63      17.30       3.63
H       2.44      14.82       3.72
H       6.21      14.47       1.66
O       3.61      19.44       2.86
H       6.43      16.94       1.67
O       5.75      19.24       2.15
H       6.27      12.56       2.75
H       1.99      13.03       2.51
H       6.00      10.10       2.58
O       4.79       8.01       2.40
O       2.53       8.21       2.22
H       1.74      10.57       2.38
C       4.64      18.76       2.55
C       4.54      17.27       2.63
C       3.41      16.66       3.21
C       3.30      15.27       3.24
C       5.44      15.08       2.12
C       3.71       8.69       2.36
C       3.85      10.18       2.46
C       5.27      12.14       2.65
C       5.56      16.46       2.11
C       5.13      10.76       2.56
C       2.73      11.01       2.46
C       2.87      12.39       2.54
