18

C      10.24      15.52      10.12
C       5.84      17.81      12.03
C       9.01      16.05      12.30
N       4.95      18.40      11.18
C       5.74      17.80      13.43
H       4.92      18.07      10.22
H       4.08      18.69      11.61
O      10.14      15.67       8.85
O      11.19      14.97      10.76
C       9.13      16.06      10.92
O       4.72      18.18      15.50
C       7.81      16.68      12.71
C       7.05      17.16      11.63
O       3.67      18.89      13.58
C       4.64      18.32      14.23
H       9.76      15.61      12.95
S       7.08      17.02      14.23
S       7.80      16.85      10.12
