30

F      10.90       1.52       9.14
H       7.14       2.95      11.31
F       6.48      -1.56      10.02
H       6.93       5.45      11.22
C       8.81       5.02       8.56
H       6.46       0.99       9.94
H      10.93      -1.04       9.25
C       8.27      -3.75      10.51
C       9.00       3.65       8.54
C       9.00      -2.92       9.64
C       8.40       2.86       9.53
C       9.92      -3.54       8.78
C       8.47      -5.12      10.48
C       7.62       3.51      10.51
C      10.06      -4.92       8.80
C       7.50       4.89      10.47
C       9.93      -0.62       9.38
C       7.45       0.56       9.80
C       9.78       0.76       9.35
C       7.60      -0.82       9.83
C       8.55       1.39       9.56
C       8.83      -1.46       9.62
H      10.76      -5.44       8.14
H       7.93      -5.80      11.13
H       9.24       5.68       7.80
H       7.55      -3.33      11.21
H       9.60       3.20       7.75
H      10.50      -2.95       8.06
N       9.35      -5.70       9.63
N       8.09       5.64       9.51
