30

C      17.31       7.17       1.39
C      15.80       6.92       1.21
H      18.77       8.62       0.66
C      15.48       6.69      -0.28
C      17.65       7.39       2.79
C      16.42       6.35      -2.50
H      17.15       4.59      -0.57
Cl      19.06       7.99      -1.90
Cl      16.49       9.29      -1.78
H      17.11       9.22       0.77
H      14.83       7.46      -0.68
Cl      19.84       6.15       1.07
Cl      17.67       4.52       2.02
H      15.50       6.06       1.83
H      14.97       5.73      -0.43
O      19.70       7.43       5.52
H      15.27       7.80       1.60
H      18.60       5.43      -1.14
O      14.49       5.46      -5.26
O      18.18       5.73       5.63
O      15.67       7.38      -5.54
C      15.36       6.32      -4.89
C      17.50       8.03      -1.00
C      18.07       5.87       0.93
C      17.69       5.54      -0.53
C      17.73       8.36       0.49
C      18.00       7.30       3.95
C      16.01       6.18      -3.62
C      18.64       6.80       5.13
C      16.78       6.64      -1.12
