30

C       3.21       0.03      22.10
H      -0.47       2.92      18.99
O       2.66      -2.68      26.04
C       1.87      -0.16      21.71
O      -0.25       3.24      16.55
C       1.08      -0.99      22.53
O       1.13       1.75      15.55
C       1.57      -1.57      23.69
O      -0.63      -1.20      20.97
C       0.56       2.28      16.59
O      -1.10      -1.57      23.09
C       0.90       1.66      17.92
O      -1.17       2.85      21.23
C       1.84       0.62      18.03
O       0.15       1.75      22.59
C       2.11       0.06      19.28
C       1.45       0.49      20.44
C       3.72      -0.56      23.25
H       2.36       0.27      17.14
C       0.52       1.53      20.30
N      -0.22       2.08      21.45
C       0.24       2.11      19.06
H       4.76      -0.41      23.54
H       3.84       0.67      21.49
N      -0.31      -1.27      22.18
C       3.42      -2.02      25.31
H       0.93      -2.20      24.31
C       2.90      -1.37      24.06
O       4.70      -1.85      25.52
H       2.84      -0.74      19.35
