72

H       5.01      12.92      11.44
H       6.19      12.91       7.49
H       5.04      15.43      11.54
H       6.36      15.41       7.43
H       4.97      17.22       7.46
H       6.47      17.28      11.49
H       3.63      18.56       6.29
H       5.30      18.71       5.65
H       4.77      21.05       4.87
H       3.66      19.87       4.14
H       3.12      20.89       5.50
H       6.22      18.80      13.28
H       7.85      18.68      12.56
H       7.91      20.04      14.67
H       8.35      21.04      13.27
H       6.73      21.17      13.98
H       3.04      20.74       8.88
H       1.81      21.57       9.87
H       1.79      19.59      11.45
H       1.37      19.09       9.80
H       3.00      18.77      10.44
H       9.51      21.76       8.94
H       8.34      20.84       9.93
H       9.62      19.81       7.32
H      10.08      19.31       8.96
H       8.46      18.91       8.34
H       3.44      23.18      12.54
H       2.13      23.26      11.32
H       1.86      25.71      11.76
H       1.61      24.76      13.23
H       3.15      25.64      12.99
H       6.72      24.39       6.12
H       7.87      23.05       6.45
H       9.73      24.71       6.73
H       8.94      24.93       5.14
H       8.57      26.05       6.48
C       5.29      13.53      10.58
C       5.96      13.52       8.36
C       5.33      14.91      10.63
C       6.03      14.90       8.34
C       5.70      15.64       9.48
C       5.31      17.79       8.32
C       6.12      17.82      10.62
C       5.29      19.19       8.31
C       6.12      19.22      10.59
C       5.70      19.92       9.44
C       5.72      17.11       9.48
C       4.66      22.07      10.13
C       6.64      22.11       8.72
C       4.70      23.48      10.16
C       6.55      23.51       8.71
C       5.66      21.40       9.43
C       4.44      19.27       6.06
C       3.97      20.34       5.09
C       7.04      19.38      12.82
C       7.53      20.47      13.74
C       2.64      20.83       9.90
C       2.18      19.49      10.43
C       8.73      20.98       8.91
C       9.25      19.68       8.34
C       2.92      23.83      11.82
C       2.36      25.06      12.49
C       7.65      24.11       6.63
C       8.80      25.00       6.23
N       5.60      12.84       9.47
N       5.62      24.16       9.44
O       4.85      19.94       7.26
O       6.55      20.01      11.62
O       3.68      21.35      10.77
O       7.65      21.46       8.06
O       3.88      24.30      10.84
O       7.43      24.31       8.06
