26

C      13.99       2.63       4.20
C      13.32       3.35       3.21
C      11.95       3.15       2.96
C       9.77       4.11       1.96
C      11.33       2.07       3.62
H      15.03       2.87       4.42
H      13.86       4.14       2.68
C      11.99       1.35       4.60
H      10.28       1.85       3.43
C      13.32       1.66       4.96
H      11.45       0.57       5.13
C      13.88       1.09       6.18
H       9.05       3.29       2.05
H      12.50       5.93       1.95
H      16.72       2.41       7.84
N       9.36       5.32       1.53
H      12.39      -0.50       6.76
N      10.44       6.14       1.49
C      11.52       5.45       1.89
N      15.00       0.74       8.14
N      13.95      -0.10       8.12
C      16.10       2.42       6.89
O      16.42       3.17       5.97
C      11.15       4.13       2.23
C      13.27       0.09       6.96
C      15.00       1.48       6.98
