29

C      -3.42       7.51       7.90
C      -0.22       9.85       7.55
C      -1.38       9.49       6.86
C      -2.26      10.56       7.08
C      -1.68       8.22       6.08
N       1.40       6.12       6.17
N       0.56       5.36       6.94
H      -1.46       5.55       7.57
H       1.18       7.96       5.14
N      -1.78       8.20       2.36
N      -1.75       9.55       2.59
H      -1.68      10.75       4.34
H      -1.77       6.48       3.60
N      -4.69       7.04       7.94
N      -5.14       6.91       6.65
H      -4.29       7.29       4.74
H      -2.87       7.71       8.81
N      -1.66      11.49       7.85
N      -0.39      11.05       8.14
H       0.71       9.30       7.67
H      -3.28      10.70       6.75
C      -0.63       5.99       7.02
C      -0.58       7.19       6.30
C       0.72       7.22       5.78
C      -1.72       9.74       3.93
C      -1.74       8.51       4.59
C      -1.77       7.57       3.55
C      -4.14       7.30       5.82
C      -3.02       7.68       6.56
