20

S      23.03      14.78      19.54
S      20.09      12.23      21.04
N      19.03      14.72      19.05
N      24.11      12.04      21.18
C      21.54      16.67      18.23
O      20.48      17.35      18.18
O      22.69      16.97      17.75
C      21.58      10.38      22.41
O      20.46       9.76      22.43
O      22.62      10.11      23.08
C      20.44      14.60      19.41
C      22.69      12.34      21.07
C      21.51      15.38      18.98
C      21.62      11.57      21.52
C      22.26      13.48      20.35
C      20.87      13.52      20.22
O      18.24      14.19      19.85
O      18.72      15.25      17.98
O      24.86      13.04      21.19
O      24.49      10.87      21.19
