17

O      24.51      10.52      14.39
C      21.87       7.54      11.34
O      25.70       8.58      14.38
C      23.72       8.71      13.09
H      23.11      10.96      13.63
C      22.60       9.45      12.64
C      22.98       6.79      11.78
C      21.68       8.85      11.77
H      23.11       5.77      11.43
H      20.82       9.43      11.43
H      24.76       6.83      13.00
C      23.89       7.38      12.64
C      24.72       9.29      14.01
O      21.10       5.71      10.05
O      22.36      10.72      13.02
O      19.89       7.64      10.04
C      20.88       6.92      10.41
