32

S      10.69      11.13      22.37
S      11.15      13.65      19.96
H      15.22      10.63      22.27
O      14.84      14.04      26.65
H      13.89      14.32      21.51
O      12.62      10.21      15.31
H      12.99       9.56      20.82
O      14.88      10.22      15.58
H      10.30      13.70      21.93
H       9.86      11.32      20.42
H      15.61      12.52      20.17
O      11.62      14.66      19.06
C      13.49      12.21      22.53
O      10.12      12.72      19.52
O      10.68      14.38      21.28
C      12.49      12.68      20.59
C      13.71      13.26      21.35
O      10.85      10.04      23.28
C      13.44      11.35      18.44
O      10.02      12.35      22.81
O       9.97      10.56      21.08
O      12.57      14.14      26.81
C      13.51      12.61      23.88
C      13.70      10.47      15.96
C      13.68      13.78      26.25
C      14.44      11.20      21.77
C      14.66      12.26      20.63
C      13.54      11.03      17.27
C      13.56      13.06      25.01
C      13.22      10.61      20.99
C      13.44      11.66      19.82
C      12.27      11.60      21.72
