18

O      24.48      10.55      14.39
C      21.86       7.55      11.32
O      25.69       8.63      14.38
C      23.70       8.74      13.08
C      22.58       9.49      12.62
C      22.99       6.81      11.77
C      21.68       8.87      11.75
C      23.89       7.42      12.65
H      20.81       9.43      11.40
H      24.75       6.86      13.00
C      24.69       9.33      14.01
O      21.07       5.73      10.03
O      22.33      10.77      12.99
O      19.87       7.66      10.02
H      23.07      11.01      13.61
H      22.49       5.28      10.79
C      20.86       6.96      10.40
O      23.24       5.53      11.40
