16

C      22.71       8.04       4.27
C      24.91       9.44       5.29
O      25.04       6.43       7.33
H      23.23       6.51       5.70
H      21.85       7.51       3.86
O      26.38       8.27       7.33
H      25.77       9.97       5.70
H      24.40      10.98       3.86
C      25.39       7.58       6.90
O      22.59      11.05       2.24
O      21.24       9.22       2.24
C      22.23       9.90       2.67
C      24.58       8.18       5.81
C      23.05       9.30       3.76
C      23.47       7.48       5.29
C      24.15      10.00       4.27
