13

C       5.23      16.80       6.28
O       3.63      15.03       6.14
C       2.03      13.27       6.28
H       2.24      14.64       4.65
H       3.58      13.46       4.80
H       5.03      15.43       4.65
H       3.68      16.61       4.80
O       5.22      16.58       7.52
O       5.91      17.68       5.66
O       2.05      13.49       7.52
O       1.35      12.39       5.66
C       4.37      15.96       5.36
C       2.89      14.11       5.36
