16

C      21.52      13.96       4.06
C      24.57      11.65       7.27
F      21.92      15.50       8.66
O      20.45      14.65       3.95
O      22.10      13.32       3.12
H      23.59      13.52       9.01
H      23.42      12.21       4.90
H      20.97      15.52       6.22
O      25.20      11.19       6.26
O      24.69      11.27       8.48
C      22.28      14.62       7.69
C      23.19      13.62       8.00
C      23.60      12.75       6.98
C      23.09      12.89       5.69
C      22.13      13.87       5.42
C      21.72      14.75       6.43
