18

H       4.97       2.24       7.14
H       3.68       3.21       0.99
O       7.01       1.44       0.69
O       8.07       0.81       2.62
O       0.59       4.65       5.51
O       1.63       3.99       7.43
C       3.80       2.92       5.79
C       1.54       4.10       6.17
S       2.53       3.71       3.63
S       6.13       1.75       4.50
C       4.85       2.53       2.34
C       2.64       3.56       5.37
O       4.11       2.69       7.09
O       4.54       2.76       1.04
C       6.02       1.89       2.76
C       4.04       2.91       3.45
C       4.61       2.54       4.68
C       7.11       1.34       1.96
