29

H       3.30       2.31       6.51
H       3.74      -2.58       7.05
H      -0.17      -1.43       9.57
H      -0.35       1.05       9.36
H       6.46       2.53       6.45
C       1.40       2.74       8.29
C       1.75      -3.03       8.71
C       1.46       1.25       8.23
C       2.52       0.57       7.56
C       0.48       0.52       8.90
C       3.40       1.24       6.67
C       4.37       0.56       5.96
C       1.68      -1.55       8.49
C       0.59      -0.87       9.03
C       2.64      -0.85       7.70
C       3.65      -1.51       6.96
C       4.51      -0.85       6.11
S       5.34       1.59       4.84
S       5.73      -1.89       5.28
O       0.28       3.31       8.04
O       0.63      -3.63       8.68
O       2.89      -3.57       8.89
O       2.47       3.32       8.63
O       6.65       1.91       5.69
O       5.77       0.85       3.70
O       4.59       2.82       4.68
O       5.35      -2.00       3.87
O       7.03      -1.29       5.55
O       5.58      -3.20       5.95
