34

C       5.46      14.91      13.87
H      12.30       9.91       8.06
C       4.07      13.12      14.35
H      11.30      10.68      10.16
C       4.93      12.22      13.75
H       7.62       8.72       8.89
H       8.83       8.01       6.86
H       7.13       8.83      11.03
H       6.64      10.36      10.25
H      10.18      11.61      11.40
H       9.54      10.63      12.72
H       8.79      12.93      12.94
H       8.22      12.98      11.24
N      10.61       8.95       7.35
H       5.71      10.20      12.47
N       8.66      10.28      10.83
H       7.25       9.84      13.22
N       7.02      11.85      12.57
H       7.27      14.53      12.82
H       5.64      15.98      13.96
N       4.32      14.45      14.43
H       3.14      12.79      14.81
H       4.67      11.17      13.79
C      11.26       9.68       8.29
C      10.68      10.12       9.46
C       9.32       9.83       9.73
C       8.66       9.02       8.76
C       9.32       8.62       7.62
C       7.26       9.93      11.05
C       9.27      11.17      11.81
C       8.33      12.33      12.13
C       6.78      10.41      12.41
C       6.14      12.68      13.16
C       6.38      14.08      13.24
