54

H      -1.36      -2.13      14.23
H      -0.46      -6.26      10.39
H      -4.13      -5.43      14.23
H      -5.02      -1.31      10.39
H      -4.13      -5.44       4.01
H      -5.02      -1.31       7.85
H      -1.35      -2.13       4.01
H      -0.46      -6.26       7.85
H      -2.74      -3.78      17.97
H      -2.74      -3.78       0.28
C      -1.23      -1.79      16.92
C      -1.99      -2.83      16.18
C      -1.97      -2.85      14.78
C      -1.91      -4.73      12.01
C      -1.91      -4.70      10.53
C      -1.10      -5.58       9.82
C      -4.26      -5.77      16.92
C      -3.49      -4.73      16.18
C      -3.52      -4.71      14.78
C      -3.58      -2.84      12.01
C      -3.57      -2.87      10.53
C      -4.39      -1.99       9.82
C      -4.25      -5.77       1.32
C      -3.49      -4.73       2.07
C      -3.52      -4.72       3.47
C      -3.58      -2.84       6.23
C      -3.57      -2.87       7.71
C      -4.38      -1.99       8.42
C      -1.22      -1.80       1.32
C      -1.99      -2.84       2.07
C      -1.96      -2.85       3.47
C      -1.90      -4.72       6.23
C      -1.91      -4.70       7.71
C      -1.10      -5.57       8.42
C      -2.74      -3.78      14.09
C      -2.74      -3.78      16.88
C      -2.74      -3.78       9.83
C      -2.74      -3.78       4.15
C      -2.74      -3.78       1.36
C      -2.74      -3.78       8.41
N      -2.74      -3.78      12.65
N      -2.74      -3.78       5.59
O      -1.72      -1.41      18.04
O      -0.15      -1.37      16.38
O      -1.22      -5.51      12.66
O      -3.77      -6.15      18.04
O      -5.33      -6.20      16.38
O      -4.26      -2.06      12.66
O      -3.76      -6.16       0.20
O      -5.33      -6.20       1.86
O      -4.26      -2.06       5.58
O      -1.71      -1.41       0.20
O      -0.15      -1.37       1.86
O      -1.22      -5.51       5.58
