22

O      22.08       5.29      11.38
O      21.26       6.46      13.14
O      17.40       9.11       9.49
O      18.27       8.14       7.63
H      21.88       9.30      11.70
H      20.45       8.70      12.59
H      20.40      10.39      10.13
H      19.02       9.81      11.09
H      21.29       9.18       8.28
H      20.69       7.57       7.83
H      22.82       8.14       9.84
H      22.23       6.56       9.31
H      19.64       6.35       9.87
C      21.50       6.30      11.90
C      21.06       7.41      10.95
C      20.90       8.80      11.60
C      19.95       9.51      10.61
C      19.67       8.40       9.57
C      20.92       8.22       8.68
C      21.91       7.55       9.66
C      18.34       8.56       8.83
N      19.66       7.19      10.45
