28

C      17.95      12.26       7.50
C      17.98       5.83       7.46
O      18.04       8.20       2.97
H      17.96      10.75       9.71
H      17.97       6.47      10.00
O      17.81      10.47       2.85
H      17.84      11.62       4.95
H      17.94       7.35       5.25
O      18.09       7.63      12.10
O      17.92       9.90      11.98
O      18.96      12.58       8.37
O      17.13      13.10       7.18
O      18.93       5.51       6.53
O      17.19       4.99       7.84
H      19.55      11.81       8.48
H      19.52       6.27       6.39
C      17.92       9.37       3.48
C      18.00       8.74      11.47
C      18.00       9.78       9.20
C      17.99       7.36       9.37
C      18.00       7.23       8.00
C      18.01       8.40       7.16
C      17.96       8.32       5.75
C      17.90      10.74       5.58
C      17.96      10.86       6.95
C      18.01       9.70       7.79
C      18.00       8.64       9.98
C      17.92       9.46       4.97
