16

O      -1.22      27.13      11.01
C       0.76      25.67      15.36
C      -1.10      27.04      14.65
C      -0.76      26.79      13.31
O      -2.57      28.12      12.56
C       1.10      25.42      14.02
C      -0.34      26.48      15.67
C       0.34      25.98      13.00
H      -1.96      27.67      14.87
H       1.96      24.79      13.79
H      -0.59      26.67      16.71
H       0.59      25.80      11.95
O       2.57      24.35      16.11
C      -1.57      27.39      12.21
O       1.22      25.34      17.65
C       1.58      25.08      16.45
