26

H       1.68      10.56      16.63
H       5.06      15.78      21.57
H       5.51      11.79      19.55
H       1.22      12.83      20.50
H       1.42      12.38      18.30
H       5.31      14.01      19.85
H       5.78      10.03      17.81
H       0.95      14.67      22.15
C       3.86       9.09      16.12
C       2.89      16.42      22.98
C       2.37      11.85      18.22
C       4.36      14.13      20.37
C       2.51      10.84      17.27
C       4.23      15.14      21.32
C       3.74      10.18      17.12
C       2.99      15.34      21.96
C       4.83      10.55      17.93
C       1.91      14.52      21.64
C       4.67      11.54      18.89
C       2.06      13.50      20.71
C       3.44      12.22      19.05
C       3.28      13.29      20.05
O       2.75       8.65      15.66
O       4.00      16.89      23.40
O       5.02       8.67      15.79
O       1.74      16.80      23.37
