28

C      11.01      10.27       9.09
C      11.32      10.74       6.75
C      10.68      11.62       9.26
C      10.98      12.06       7.01
H       9.64       7.81       8.91
H      10.11       6.25       9.20
N      12.10       2.12       8.29
N      11.39       7.31       8.15
H      11.74       2.52      10.29
C      11.80       8.47       7.53
N      10.43       7.22       9.18
N      12.70       8.16       6.59
H      12.38       4.34       5.77
C      12.01       4.87       7.84
N      12.89       6.82       6.60
C      11.87       2.97       9.30
H      11.73       5.00      10.00
N      10.68      12.49       8.25
C      12.22       3.97       6.78
C      12.27       2.61       7.05
C      12.09       6.29       7.54
H      12.45       1.87       6.27
H      11.06       9.60       9.95
C      11.82       4.35       9.13
H      11.58      10.43       5.74
H      10.44      12.02      10.25
C      11.34       9.82       7.81
H      10.95      12.82       6.22
