18

C       4.27       7.14      12.80
O       5.98      12.06       9.64
H       5.16       6.12      10.48
C       5.58       9.29       9.32
O       4.30      12.09      11.17
H       5.90       9.83       8.42
C       4.71       7.91      11.59
O       6.10       7.73       7.01
H       4.37       9.86      12.46
C       4.70       9.31      11.58
O       6.35       5.90       8.28
O       4.04       5.90      12.66
C       5.59       7.89       9.33
O       4.16       7.76      13.91
C       5.14      11.50      10.42
C       5.16       7.21      10.47
C       6.05       7.13       8.13
C       5.14      10.00      10.44
