28

C      -0.17       1.44      13.25
S      -4.03       4.68      10.01
S      -3.02       6.07       8.89
H      -2.25       8.66       8.16
O      -7.38      11.17       9.14
H      -6.84       8.99      10.03
O      -5.75      12.10       7.93
H      -5.59       6.84      10.25
O      -3.33      10.96       7.84
H      -4.41       3.25      12.41
O       1.01       1.30      12.80
H       0.44       3.18      11.39
O      -0.59       0.70      14.23
H      -1.05       4.65      10.05
O      -3.07       1.74      13.97
C      -3.86       7.60       9.17
C      -3.26       8.72       8.58
C      -3.95       9.94       8.45
C      -5.29      10.00       8.95
C      -5.83       8.89       9.63
C      -5.13       7.70       9.76
C      -6.19      11.14       8.69
C      -2.83       4.01      11.12
C      -3.34       3.26      12.18
C      -2.50       2.44      12.97
C      -1.11       2.40      12.65
C      -0.62       3.23      11.62
C      -1.45       4.04      10.86
