12

N       4.26      -7.20      15.83
N       3.57      -5.06      15.07
H       6.26      -7.44      16.37
C       5.84      -5.42      15.76
C       5.50      -6.74      16.02
C       7.27      -5.00      15.99
C       4.82      -4.60      15.25
O       7.41      -3.72      16.17
O       8.17      -5.86      16.00
H       5.01      -3.56      14.98
C       3.33      -6.34      15.38
H       2.31      -6.70      15.28
