82

H      17.48      11.15       0.02
H      20.84      10.81      -3.38
H      23.32      10.81      -3.39
H      18.51      11.09       6.06
H      16.90      11.06       7.98
H      13.62      11.55       5.25
H      15.21      11.60       3.32
H      16.92      10.83      -7.97
H      18.52      10.80      -6.04
H      15.18      10.98      -3.30
H      13.61      11.00      -5.24
H      26.72      11.05      -0.02
H      23.36      11.23       3.39
H      20.88      11.28       3.40
H      25.72      10.85      -6.09
H      27.36      10.94      -7.98
H      30.60      11.26      -5.19
H      28.99      11.19      -3.28
H      27.28      11.20       7.97
H      25.69      11.27       6.04
H      29.00      10.82       3.31
H      30.58      10.77       5.25
C      14.20      10.98      -7.84
C      14.18      11.21       7.84
C      19.25      11.02      -1.21
C      18.57      11.12       0.01
C      19.26      11.18       1.24
C      20.69      11.15       1.25
C      21.39      11.06       0.00
C      20.67      10.98      -1.23
C      21.40      10.88      -2.45
C      22.77      10.88      -2.46
C      18.52      11.26       2.43
C      17.84      11.31       3.45
C      16.96      11.34       4.56
C      17.44      11.20       5.89
C      16.54      11.18       6.95
C      15.16      11.29       6.72
C      14.69      11.46       5.41
C      15.58      11.48       4.34
C      18.50      10.96      -2.41
C      17.82      10.92      -3.43
C      15.17      10.92      -6.72
C      16.56      10.86      -6.94
C      17.44      10.85      -5.87
C      16.96      10.90      -4.54
C      15.56      10.95      -4.33
C      14.69      10.96      -5.40
C      30.00      10.99       7.85
C      30.06      11.12      -7.82
C      24.96      11.09       1.21
C      25.63      11.04      -0.02
C      24.94      10.99      -1.24
C      23.52      10.97      -1.24
C      22.82      11.04      -0.00
C      23.53      11.11       1.23
C      22.80      11.19       2.45
C      21.43      11.21       2.46
C      25.68      10.97      -2.44
C      26.37      10.98      -3.45
C      27.25      11.01      -4.56
C      26.79      10.95      -5.89
C      27.70      10.99      -6.95
C      29.07      11.11      -6.70
C      29.53      11.17      -5.37
C      28.64      11.13      -4.32
C      25.70      11.11       2.41
C      26.38      11.10       3.43
C      29.03      10.98       6.72
C      27.65      11.12       6.95
C      26.76      11.16       5.87
C      27.24      11.06       4.55
C      28.63      10.91       4.34
C      29.51      10.88       5.41
O      14.63      11.00      -9.04
O      14.61      11.16       9.04
O      12.96      11.02      -7.50
O      12.94      11.18       7.49
O      29.57      11.01       9.05
O      29.62      11.11      -9.02
O      31.24      11.01       7.50
O      31.29      11.13      -7.47
