26

H      10.26      13.95      21.14
H       9.97      10.43      24.44
H      10.08      12.66      23.27
H      10.75       8.38      20.93
H      10.88      10.52      19.60
C      11.13      17.99      16.82
C      11.18      16.81      17.53
C      10.74      15.62      16.90
C      10.28      15.70      15.58
C      10.24      16.94      14.95
C      10.75      14.34      17.60
C      10.58      13.03      20.63
C      10.50      11.76      21.33
C      10.17      10.50      23.37
C      10.23      11.73      22.71
C      10.61       9.36      21.40
C      10.68      10.53      20.67
H      11.49      18.93      17.24
N      10.66      18.06      15.56
N      10.36       9.34      22.72
N      11.07      14.30      18.85
H      11.56      16.77      18.55
N      11.02      13.06      19.41
H       9.95      14.81      15.05
H       9.88      17.05      13.93
H      10.43      13.45      17.05
