22

H      12.42       3.45      11.27
H      14.77       9.07       1.82
Br      11.55       2.88       6.29
Br      18.15      10.07       5.50
Br      11.74       6.98       5.50
Br      15.08       7.94       8.57
N      11.81       1.78      10.11
N      16.78       9.76       1.78
N      11.55       1.57       8.77
C      12.55       5.05       8.72
N      17.72      10.03       2.75
C      14.93       8.89       4.76
C      13.58       7.18       7.65
C      13.32       7.63       6.37
C      12.95       6.11       8.27
C      14.16       8.40       5.57
C      12.16       3.07      10.29
C      15.66       9.35       2.39
C      11.75       2.73       8.14
C      17.17       9.78       3.94
C      12.15       3.75       9.05
C      15.83       9.33       3.79
