48

H       8.50       9.59      16.75
H      11.31       9.89      22.83
H       8.68      13.22      22.16
H      11.37      12.70      16.04
C       7.76       9.11      14.23
C      11.18       9.79      25.50
C       7.98      13.70      24.70
C      11.26      12.76      13.37
H      10.14       9.12      18.36
H      10.32      13.57      20.53
H      10.15       9.28      20.82
H      10.28      13.41      18.06
O       8.24      11.92      27.07
O      10.42      10.58      11.65
O       8.17      10.75      11.82
O      10.50      12.06      27.23
H       8.14       8.47      13.42
H       7.45       8.48      15.06
H       6.88       9.63      13.83
H      12.01      10.28      26.02
H      10.53       9.38      26.29
H      11.58       8.95      24.92
H       8.39      14.28      25.55
H       7.74      14.41      23.89
H       7.05      13.25      25.06
H      12.08      12.21      12.89
H      10.66      13.17      12.54
H      11.68      13.60      13.93
C       9.41      11.92      26.58
C       9.34      10.74      12.31
C      10.17      10.10      18.83
C      10.27      12.59      20.05
C      10.19      10.19      20.22
C      10.27      12.50      18.66
C      10.20      11.44      20.86
C      10.17      11.25      18.03
C       8.80      10.10      14.69
C      10.46      10.76      24.60
C       8.94      12.65      24.22
C      10.46      11.86      14.28
C       9.06      10.22      16.06
C      10.64      10.66      23.21
C       9.19      12.54      22.85
C      10.65      11.97      15.66
C       9.98      11.15      16.57
C      10.03      11.55      22.32
C       9.52      10.92      13.79
C       9.59      11.76      25.10
