36

H       2.04       0.85       5.48
H       2.12       3.01       9.22
H       2.12      -3.01       7.70
H       2.04      -0.85      11.45
C       2.08      -5.55      11.67
C       2.08       5.55       5.26
C       2.08       4.24       6.01
C       2.10       2.98       5.36
C       2.07       1.77       6.05
C       2.08       1.75       7.45
C       2.09       2.98       8.13
C       2.06       4.17       7.43
C       2.08       0.53       8.16
C       2.08      -0.53       8.77
C       2.08      -1.75       9.47
C       2.09      -2.98       8.79
C       2.06      -4.17       9.50
C       2.08      -4.24      10.91
C       2.10      -2.98      11.56
C       2.07      -1.77      10.87
N       2.15       2.82       3.88
N       2.02       5.38       8.31
N       2.02      -5.38       8.61
N       2.15      -2.82      13.04
O       1.08      -6.31      11.50
O       3.08      -5.78      12.41
O       1.09       6.31       5.42
O       3.08       5.78       4.52
O       3.01       3.43       3.26
O       1.33       2.02       3.41
O       1.15       6.22       8.09
O       2.83       5.38       9.24
O       1.15      -6.22       8.83
O       2.83      -5.38       7.68
O       3.01      -3.43      13.66
O       1.33      -2.01      13.51
