20

C       5.00       3.77       7.04
C       4.95       9.40       4.56
H       4.59       3.05       3.87
C       4.96       8.01       4.58
C       4.76       7.32       5.78
H       4.49       5.54       3.70
H       5.07       5.69       7.98
C       4.56       8.11       6.93
H       5.19       3.19       7.95
C       4.58       9.49       6.84
H       5.13       9.96       3.65
H       5.14       7.48       3.64
H       4.37       7.65       7.90
H       4.43      10.12       7.72
N       4.89       3.04       5.91
N       4.77      10.14       5.68
C       4.69       3.69       4.75
C       4.64       5.07       4.67
C       4.77       5.85       5.83
C       4.94       5.15       7.04
