40

H      13.25      16.39      26.81
H      13.19      17.40      24.53
C      16.63       9.22      28.77
C      16.28      10.63      28.42
H      17.42      11.47      30.04
C      16.74      11.69      29.21
C      16.33      12.99      28.95
H      16.68      13.81      29.58
H      14.36      12.41      26.23
C      14.84      16.89      22.46
C      15.46      13.26      27.88
H      15.07      10.07      26.73
C      15.03      12.20      27.06
C      14.87      16.27      23.81
C      15.43      10.90      27.33
H      13.44      13.77      29.66
C      15.84      15.31      24.13
C      14.63      15.35      28.79
H      12.83      15.09      31.68
C      15.89      14.75      25.40
C      13.81      14.79      29.78
C      13.66      17.58      32.33
H      15.13      18.41      30.22
C      13.47      15.52      30.91
H      15.72      17.11      28.17
C      13.98      16.09      26.05
C      13.95      16.83      31.08
C      13.94      16.66      24.79
N      15.01      14.58      27.67
C      14.75      17.40      30.08
C      15.08      16.67      28.94
O      12.84      17.05      33.16
C      14.96      15.13      26.38
O      14.27      18.70      32.49
O      15.69      16.46      21.60
O      13.96      17.80      22.25
O      16.04       8.29      28.12
O      17.49       9.06      29.71
H      16.57      15.02      23.37
H      16.66      14.02      25.64
