22

H       8.57       0.77      15.13
H       9.42       0.65      19.39
H       7.71       4.24      15.27
H       5.28       0.89      16.56
H       8.93       4.94      17.60
H       7.13       2.18      20.42
C       8.93       0.55      16.13
C       8.59       1.17      17.35
C       9.36       0.50      18.31
C       6.98       3.44      15.39
C       6.84       2.51      16.43
C       5.73       1.74      16.06
C       8.53       4.41      18.47
C       7.91       3.16      18.55
C       7.62       3.01      19.92
N       7.68       2.22      17.53
N      10.10      -0.46      17.71
N       9.83      -0.43      16.37
N       5.25       2.18      14.88
N       6.02       3.24      14.47
N       8.04       4.09      20.60
N       8.60       4.97      19.70
