34

C       5.64      15.65      14.27
C      11.07      20.02      14.21
H      10.44      13.18      14.64
H      10.40      15.68      14.56
H       6.16      13.11      14.33
H      10.55      22.55      14.28
H       6.25      22.46      14.49
H       6.31      19.97      14.42
O       9.44      10.93      14.73
O       7.22      10.90      14.27
O       7.25      24.72      14.69
O       9.48      24.76      14.27
O       5.51      17.00      14.15
O       4.64      14.95      14.31
O      11.21      18.67      14.20
O      12.07      20.73      14.16
H       6.40      17.43      14.13
H      10.33      18.23      14.24
C       8.32      11.49      14.50
C       8.37      24.16      14.46
C       8.30      12.99      14.48
C       9.50      13.72      14.55
C       9.47      15.11      14.51
C       8.24      15.80      14.41
C       7.03      15.07      14.36
C       7.09      13.67      14.39
C       8.30      17.22      14.37
C       8.42      18.44      14.34
C       8.47      19.85      14.33
C       9.68      20.59      14.29
C       9.61      21.99      14.32
C       8.40      22.66      14.40
C       7.20      21.93      14.43
C       7.24      20.55      14.40
