16

O       6.98       1.46       0.73
O       8.09       0.82       2.63
C       3.75       2.90       5.78
C       4.85       2.48       2.37
S       2.48       3.61       3.62
C       6.01       1.88       2.82
C       4.02       2.85       3.46
C       4.59       2.52       4.71
S       6.12       1.75       4.55
C       2.58       3.50       5.36
C       1.48       4.04       6.17
O       0.49       4.53       5.51
O       1.61       3.98       7.44
F       4.09       2.68       7.06
C       7.11       1.35       1.99
H       4.63       2.63       1.32
