17

C      -1.31       1.57       8.47
C      -1.83      -2.96       8.80
C      -0.93      -0.85       8.86
C      -2.24      -0.56       8.46
S       0.03       0.58       8.99
S      -3.19      -2.00       8.31
O      -0.87      -5.05       9.17
H       0.25      -2.69       9.34
H      -4.38       0.76       7.92
C      -1.93      -4.43       8.85
O       0.03       3.49       8.61
C      -1.14       3.01       8.40
O      -2.19       3.70       8.14
O      -3.06      -4.95       8.59
O      -3.63       1.39       7.83
C      -2.47       0.83       8.23
C      -0.69      -2.23       9.05
