16

S      -8.26       3.09       7.96
S      -8.19       6.47       5.48
H     -10.19       5.72       8.46
C      -6.97       3.85       5.83
C      -9.49       5.69       7.63
C      -7.06       2.79       6.72
C      -9.36       6.74       6.74
C      -8.62       4.63       7.29
C      -7.85       4.91       6.14
O      -6.62       0.70       7.67
F      -6.14       3.89       4.78
O      -9.81       8.85       5.82
C      -6.32       1.53       6.74
O     -10.94       8.19       7.69
C     -10.09       8.02       6.76
O      -5.46       1.35       5.82
