54

H       9.55       2.00      13.98
O       9.49       2.40      11.72
O       9.12       1.21      13.61
O       3.59     -11.25       6.14
O       4.42     -10.47       4.17
H       7.92       3.22       8.64
H       3.98     -11.28       3.85
H       6.82     -12.21       7.23
O       6.72       2.67      10.57
O       8.16       2.29       8.84
H       5.84      -0.85       6.69
H       8.62      -3.28       8.13
H       4.28      -5.36       9.26
H       7.17      -7.78      10.89
O       6.31     -10.77       8.97
O       6.49     -11.39       6.79
O       5.72       0.80       8.26
C       8.23      -5.46       6.71
C       4.64      -3.10      10.60
O       6.43      -1.18       7.41
O       8.21      -8.34       8.89
F       9.25      -1.39      13.08
F       3.53      -7.81       4.63
C       7.72       0.50      10.34
F       8.20      -3.37      11.68
F       4.36      -5.57       5.83
C       5.63      -9.23       7.25
C       9.06       1.40      12.27
C       4.21     -10.42       5.51
C       7.46       1.94       9.94
C       6.16     -10.53       7.78
C       6.38      -0.22       8.38
C       7.02      -8.10       9.04
C       7.20      -0.56       9.58
C       6.02      -8.06       7.91
C       7.36      -1.89      10.02
C       5.61      -6.80       7.44
C       8.05      -2.11      11.20
C       4.77      -6.76       6.33
C       8.57      -1.06      11.96
C       4.36      -7.93       5.68
C       8.43       0.26      11.54
C       4.79      -9.18       6.13
C       7.67      -3.73       8.39
C       5.24      -4.90       8.99
C       7.30      -4.91       7.74
C       5.60      -3.71       9.62
C       6.07      -5.52       8.06
C       6.84      -3.11       9.32
O       6.45      -7.75      10.22
O       3.66      -3.82      10.97
O       9.27      -4.76       6.45
O       4.88      -1.91      10.97
O       7.91      -6.56       6.15
