42

C      -0.60      17.20       8.40
C       0.06      16.15       8.95
H       6.62      12.39       8.23
H       5.69      11.95      12.44
C       0.97      18.98      13.48
C       2.08      18.45      12.92
H       2.77      21.31      14.18
H      -0.87      19.56      15.75
C       4.61      13.56      10.13
C       4.17      14.35      11.13
H      -1.56      19.13       6.34
H      -2.49      15.04       7.43
N       7.16      11.14      11.16
N       7.45      11.26       9.82
N       0.37      21.18      16.34
N       1.52      21.74      15.84
H       0.30      18.07      10.89
H       3.88      16.49      12.68
H       2.02      14.41       9.40
N      -3.18      16.36       5.93
N      -2.89      17.67       5.58
H      -0.34      18.21       8.73
H      -0.12      15.15       8.54
H      -0.00      18.59      13.18
H       3.06      18.75      13.30
H       4.18      13.66       9.13
H       4.68      14.31      12.09
C       6.56      12.12       9.29
C       5.68      12.59      10.28
C       6.11      11.92      11.44
C       1.89      21.03      14.75
C       0.97      20.00      14.51
C       0.02      20.15      15.54
C      -1.95      18.12       6.44
C      -1.59      17.11       7.35
C      -2.40      16.02       6.98
C       1.07      16.25      10.00
C       1.09      17.31      10.92
C       2.08      17.40      11.90
C       3.09      16.42      11.93
C       3.09      15.34      11.03
C       2.06      15.26      10.09
