30

H      14.84       2.02       8.48
Br      15.32       6.18       8.73
H      14.59       1.78       6.16
Cl      12.20       1.49       8.22
Cl      16.51       3.06       5.79
Cl      10.84       4.02       8.34
H      12.96       5.90       8.06
O      12.80       5.84      12.51
H      13.41       5.91       5.77
H      12.18       2.36       5.74
H      15.74       3.53       8.30
O      11.84       3.80      12.85
H      15.11       5.51       6.05
H      11.70       4.06       5.83
O      14.45       2.11       1.39
C      12.34       3.21       7.73
O      15.45       4.15       1.30
C      14.84       2.99       7.97
C      14.86       2.81       6.45
C      14.18       3.58       3.15
C      13.62       3.84       8.39
C      12.43       3.32       6.20
C      13.84       3.78       5.78
C      14.08       5.22       6.29
C      13.83       5.27       7.80
C      13.98       3.70       4.34
C      13.44       3.93       9.82
C      12.59       4.64      12.21
C      13.16       4.16      10.98
C      14.70       3.26       1.85
