24

H       3.28       2.79       7.51
H       2.53       1.28       7.79
H       7.30      -0.30       3.48
H       6.13      -1.47       3.27
H       3.11      -1.88       7.31
H       3.24      -0.62       8.41
H       7.07       2.77       4.42
H       6.72       1.67       3.19
C       5.37       3.32       6.13
C       5.86      -0.23       4.89
C       4.11      -0.24       6.62
C       6.01       1.16       5.03
C       4.94      -0.92       5.71
C       5.22       1.86       5.98
C       4.91      -2.42       5.73
C       4.23       1.17       6.74
N       3.40       1.79       7.66
N       6.66      -0.94       3.96
N       3.16      -0.87       7.43
N       6.94       1.78       4.18
O       6.51       3.85       5.85
O       3.77      -2.99       5.53
O       5.98      -3.03       6.01
O       4.38       4.03       6.54
