51

H       1.70       1.80       0.51
H       2.50       2.58      -5.66
H       3.16       7.45      -1.73
H       3.75       7.60      -6.66
H       3.60       5.40      -5.49
H       2.04      -1.83      -3.41
H       2.44       0.23      -2.05
H       3.30       5.57       3.34
H       3.50       5.70       0.85
C       2.28       3.62       4.82
C       3.54      10.04      -5.65
C       1.87      -2.06      -6.06
C       2.39       3.62       3.32
C       2.03      -0.78      -5.29
C       3.53       8.76      -4.86
C       1.93       2.58       2.50
C       2.06       2.63       1.12
C       2.17       0.47      -5.89
C       2.41       1.62      -5.16
C       3.39       8.69      -3.47
C       3.31       7.47      -2.80
C       3.63       7.56      -5.58
C       3.55       6.33      -4.93
C       2.13      -0.86      -3.89
C       2.36       0.29      -3.14
C       2.95       4.75       2.71
C       3.07       4.82       1.33
C       2.64       3.75       0.52
C       2.77       3.81      -0.95
C       2.50       1.54      -3.76
C       2.70       2.76      -2.97
C       3.36       6.28      -3.54
C       3.14       4.99      -2.86
N       2.56       2.67      -1.63
N       3.00       3.90      -3.63
N       3.07       4.99      -1.51
N       1.27       1.40       3.09
N       3.24       9.92      -2.67
N       1.97       0.61      -7.35
O       0.88      -2.79      -5.75
O       1.31       4.29       5.30
O       2.59      10.14      -6.49
O       2.78      -2.35      -6.89
O       4.50      10.85      -5.50
O       3.22       3.08       5.48
O       1.31       1.29       4.32
O       0.70       0.61       2.32
O       2.75      10.91      -3.24
O       3.59       9.87      -1.49
O       1.23      -0.22      -7.90
O       2.54       1.55      -7.91
