20

F       9.35       7.71      14.88
F       4.59       7.77      17.59
F       9.35       7.72      17.59
F       4.59       7.74      14.89
C       6.94       7.68      10.73
C       6.95       7.77      21.74
C       8.18       7.73      16.93
C       5.77       7.74      15.54
C       8.18       7.72      15.54
C       5.77       7.75      16.93
C       6.97       7.74      17.67
C       6.97       7.72      14.81
C       6.97       7.75      19.07
C       6.97       7.71      13.40
C       6.95       7.69      12.18
C       6.95       7.76      20.29
O       8.05       7.91      10.16
O       5.82       8.01      22.29
O       8.06       7.54      22.31
O       5.82       7.45      10.18
