34

C       7.75      18.66      11.88
C       6.61      18.70      13.84
C       8.88      18.81      13.84
C       7.71      18.48       7.82
C       6.55      18.45       5.88
C       8.82      18.32       5.85
C       3.30      18.64      16.22
C      12.18      18.88      16.23
C       3.23      18.52       3.51
C      12.13      18.22       3.47
C       4.33      18.52       4.45
C       5.32      18.49       5.16
C      10.03      18.23       5.10
C      11.01      18.19       4.39
C       5.39      18.67      14.58
C       4.41      18.64      15.28
C      10.10      18.89      14.58
C      11.07      18.92      15.30
C       7.75      18.59      10.46
C       7.73      18.54       9.25
N       6.55      18.63      12.49
N       7.74      18.80      14.57
N       8.95      18.75      12.49
N       6.50      18.52       7.23
N       7.67      18.34       5.14
N       8.90      18.38       7.20
O       2.12      18.66      15.74
O       3.64      18.63      17.44
O      13.36      19.00      15.77
O      11.85      18.67      17.45
O       2.04      18.55       3.98
O       3.57      18.48       2.29
O      13.30      18.07       3.92
O      11.80      18.45       2.25
