16

C       6.65       3.84       5.85
O       2.72       0.26       9.52
O       1.58       2.23       9.52
C       2.56       1.48       9.19
H       4.42       5.03       6.79
H       6.57       1.31       6.79
C       5.59       3.23       6.71
C       3.51       3.43       7.92
C       4.72       1.32       7.92
O       6.49       5.06       5.52
C       3.62       2.09       8.33
O       7.63       3.09       5.52
C       4.49       3.99       7.12
C       5.70       1.89       7.12
H       4.79       0.29       8.25
H       2.64       4.00       8.25
