42

H       5.38      10.50      11.59
N       8.09      12.24      11.71
H       9.04      11.73      13.53
N       4.16       6.13      24.95
N       5.31       6.60      25.53
H       3.67       5.36      23.04
H       7.29       6.89      24.86
N       6.87       6.96      17.34
N       7.71       7.20      18.26
Cl       4.28       9.55      13.91
Cl       9.81       7.68      16.16
O       5.22       3.33      22.21
H       6.13       5.00      18.85
O       3.90       8.07      16.99
O       4.22       6.41      15.46
H       9.17       9.54      14.21
O       4.61       3.61      20.04
H       8.73       8.02      20.43
H       7.84       7.59      22.71
H       4.19       2.75      20.26
H       3.38       6.12      15.85
C       6.32      10.94      11.90
C       8.20      11.56      12.87
C       7.10      10.69      13.04
C       4.44       5.79      23.68
C       6.28       6.58      24.61
C       5.79       6.07      23.39
C       7.02       9.66      14.07
C       8.22       9.18      14.62
C       8.27       8.25      15.65
C       7.06       7.74      16.18
C       5.85       8.12      15.56
C       5.82       9.08      14.54
C       6.50       5.56      19.70
C       6.07       5.24      20.99
C       7.41       6.61      19.50
C       6.47       6.05      22.10
C       7.50       6.99      21.88
C       7.98       7.24      20.61
C       5.27       4.00      21.18
C       4.57       7.56      16.11
N       6.94      11.84      11.11
