51

H       2.06       1.83       1.08
H       2.12       4.00       4.79
H       2.05       6.13       1.04
H       3.24       2.22      -3.24
H       3.25       2.21      -0.77
H       0.70       5.70      -0.77
H       0.83       0.44       2.38
H       3.38       0.11       6.63
H       3.39       2.24       5.37
H       3.40       5.75       5.33
H       0.96       9.70       3.58
H       0.88       7.57       2.32
H       0.07       5.52      -4.12
H       0.20      -2.35       4.23
H       3.69       8.77       7.06
C       2.12      -2.19       5.96
C       2.24      10.21       5.86
C       2.01       3.97      -4.88
C       2.11       2.77       3.02
C       2.07       2.78       1.62
C       2.02       3.98       0.90
C       2.03       5.19       1.60
C       2.10       5.22       3.00
C       2.13       4.00       3.70
C       2.66       2.96      -2.69
C       2.67       2.96      -1.30
C       1.99       3.96      -0.58
C       1.29       4.95      -1.29
C       1.24       4.93      -2.69
C       1.96       3.95      -3.39
C       1.42       0.38       3.29
C       1.37      -0.81       4.02
C       2.09      -0.90       5.23
C       2.80       0.20       5.71
C       2.80       1.40       5.00
C       2.12       1.50       3.77
C       2.84       6.60       4.94
C       2.93       7.81       5.63
C       2.24       8.95       5.14
C       1.50       8.83       3.94
C       1.47       7.64       3.23
C       2.14       6.50       3.73
O       1.08       3.37      -5.51
O       1.20      -2.45       6.79
O       1.33      11.07       5.64
O       2.98       4.59      -5.44
O       3.19      10.40       6.74
O       3.10      -2.99       5.70
O       0.50       5.89      -3.32
O       0.65      -1.84       3.51
O       3.66       7.83       6.77
