20

H      15.34      15.75      12.97
H      19.32      18.21      11.42
H      17.49      16.99      15.60
H      16.12      16.00      15.21
H      17.29      16.77       8.80
H      18.77      17.57       9.20
N      16.77      16.73      14.94
N      17.81      17.36       9.44
C      19.25      18.13      14.03
O      20.27      18.70      13.49
O      19.05      18.04      15.30
C      15.45      15.76      10.37
C      18.23      17.54      13.13
C      16.43      16.41      11.27
C      17.08      16.84      13.61
C      17.56      17.13      10.79
C      16.22      16.29      12.65
C      18.43      17.66      11.75
O      15.64      15.86       9.10
O      14.47      15.14      10.91
