30

O       6.05      10.34      21.89
H       5.08      10.93      32.31
H       5.27      13.60      28.45
H       5.14      12.80      30.64
H       6.26       7.86      27.04
H       6.54       7.63      24.63
H       5.44      13.28      26.02
H       6.54       8.45      22.45
C       5.80      12.18      23.87
C       5.22       8.30      31.80
C       5.24      11.76      30.32
C       5.27       9.41      30.79
C       6.12       9.70      24.20
C       6.28       8.60      25.06
C       6.11       8.73      26.42
C       5.76       9.97      27.02
C       5.68      11.11      26.15
C       5.52      10.15      28.45
C       5.39      11.49      28.94
C       5.38      12.60      28.03
C       5.49      12.42      26.69
C       5.40       9.12      29.43
C       5.20      10.74      31.24
C       5.85      10.95      24.75
C       6.25       9.49      22.74
Cl       5.30       7.42      29.07
O       4.65      12.61      23.55
O       6.93      12.71      23.61
O       6.34       7.85      32.18
O       4.07       7.93      32.19
