14

C       0.78       5.68       8.93
C       0.78       6.87       7.02
H       1.35       7.35       6.22
C      -0.61       5.67       8.92
C      -0.71       4.87      10.20
C       0.88       4.89      10.21
N       1.51       6.27       8.00
N      -1.34       6.24       7.98
H       1.35       5.42      11.05
H       1.37       3.91      10.10
C      -0.61       6.85       7.00
H      -1.18       7.32       6.20
H      -1.20       5.40      11.03
H      -1.18       3.89      10.09
