10

C       0.00       2.58       0.00
O       0.01       2.02       1.15
C      -0.00       9.25      -0.00
C       0.00       7.81      -0.00
O      -1.15       9.81       0.02
C       0.00       6.59      -0.00
C       0.00       5.24       0.00
O       1.15       9.81      -0.02
C       0.00       4.02       0.00
O      -0.01       2.02      -1.14
