24

H       3.92      10.59       0.67
H       6.89      10.49       3.56
F       2.84      12.70      -0.36
F       8.05      12.53       4.64
F       2.87      15.42      -0.30
F       8.10      15.24       4.69
C       4.58      11.18       1.30
C       4.56      12.58       1.28
C       3.69      13.35       0.45
C       4.64      16.83       1.43
C       6.26      11.12       2.93
C       6.33      12.52       2.98
C       7.23      13.23       3.84
C       6.36      16.78       3.02
C       6.38      15.38       3.03
C       7.25      14.60       3.86
C       4.60      15.43       1.35
C       3.71      14.72       0.49
C       5.46      13.27       2.15
C       5.48      14.68       2.17
H       7.04      17.36       3.64
H       3.97      17.46       0.84
N       5.40      10.49       2.11
N       5.50      17.46       2.25
