20

H       7.80       5.13      14.95
H       8.14       9.43      17.44
H       7.80       5.13      17.44
H       8.14       9.43      14.95
C       7.98       7.27      10.70
C       7.96       7.29      21.69
C       7.87       6.07      16.89
C       8.07       8.49      15.50
C       7.97       7.28      17.61
C       7.97       7.28      14.78
C       8.07       8.50      16.89
C       7.88       6.07      15.50
C       7.96       7.29      19.02
C       7.98       7.28      13.37
C       7.98       7.27      12.15
C       7.96       7.29      20.24
O       7.85       6.14      10.14
O       8.09       8.42      22.25
O       8.11       8.41      10.14
O       7.83       6.15      22.25
