16

H      18.56       8.85       3.30
C      18.44      14.66       2.01
H      18.31      14.21       4.83
O      18.51      14.51       0.74
O      18.51       7.30       5.49
O      18.36      15.77       2.64
O      18.36       8.56       7.40
C      18.50       9.73       3.94
C      18.44       9.63       5.32
C      18.37      13.34       4.19
C      18.40      11.99       4.60
C      18.48      11.07       3.53
C      18.44       8.40       6.13
S      18.53      11.89       2.01
C      18.44      13.43       2.81
S      18.35      11.18       6.12
