48

H       5.49       3.52       7.82
H       5.64      -0.71       9.39
H       5.09       1.26       7.97
H       2.59       2.80      11.13
H       3.15       0.84      12.53
C       4.71      -1.25      11.90
C       4.44      -0.05      11.05
C       4.98       0.07       9.76
C       4.66       1.17       8.97
C       3.79       2.17       9.44
C       3.24       2.03      10.73
C       3.56       0.94      11.53
C       3.51       3.40       8.66
C       4.51       4.00       7.89
H       4.22       6.89       5.07
H       2.90       6.84       6.96
H       6.90       5.19       7.99
H       6.12       8.15       4.08
H       8.78       6.44       6.99
C       8.73       8.08       4.87
C       7.57       7.38       5.48
C       6.28       7.50       4.94
C       5.22       6.79       5.50
C       5.42       5.94       6.60
C       6.72       5.82       7.12
C       7.78       6.53       6.57
C       4.30       5.24       7.27
C       3.06       5.86       7.41
H      -2.55       5.59       9.10
H      -0.51       4.30       8.50
H       1.78       7.95       8.49
H      -0.26       9.22       9.07
H       1.49       3.60       9.41
C      -2.75       8.29       9.43
C      -1.53       7.49       9.13
C      -1.59       6.09       8.97
C      -0.45       5.38       8.63
O       5.45      -2.17      11.41
O       4.15      -1.26      13.05
C       0.78       6.03       8.45
C       2.03       5.28       8.17
C       2.27       4.04       8.78
C       0.83       7.43       8.60
C      -0.30       8.14       8.94
O       8.53       8.79       3.82
O       9.86       7.89       5.43
O      -3.87       7.68       9.53
O      -2.57       9.55       9.54
