22

H       4.02       0.07       9.79
H       2.85       1.66      15.00
H       2.69       4.02      10.82
H       4.18      -2.29      13.97
H       4.31      -1.65      11.57
H       2.56       3.39      13.22
C       3.45      -0.75      16.05
C       3.43       2.48       8.73
C       3.18       0.95      14.24
C       3.70       0.79      10.54
C       3.23       1.34      12.89
C       3.65       0.39      11.90
C       3.36       2.07      10.17
C       3.51      -0.34      14.62
C       3.99      -0.93      12.32
C       2.88       2.66      12.47
C       3.92      -1.29      13.64
C       2.96       3.02      11.14
O       3.40       0.18      16.93
O       3.47       1.55       7.85
O       3.42      -2.00      16.31
O       3.46       3.73       8.48
