20

H      23.35       8.41      28.85
H      28.77      11.79      28.16
H      26.38      10.30      31.70
H      25.74       9.90      25.32
O      24.33       9.02      25.44
O      23.13       8.27      27.21
C      24.15       8.90      26.71
C      27.97      11.29      30.30
O      28.98      11.92      29.81
O      27.78      11.17      31.58
O      23.89       8.75      29.61
O      28.22      11.44      27.41
O      25.63       9.83      31.24
O      26.48      10.36      25.78
C      25.12       9.51      27.63
C      26.99      10.68      29.39
C      24.94       9.40      29.04
C      27.18      10.79      27.98
C      25.87       9.98      29.91
C      26.24      10.21      27.10
