34

C       3.82      15.82       1.61
C       2.31      10.25       6.66
H       4.75      14.07       4.56
C       5.36      14.41       1.04
H       0.48      12.55       3.84
C       0.57      11.59       6.47
H       1.58      14.25       2.82
H       1.85      13.92       5.41
H       3.43      15.19       4.21
Br       1.57      13.06       0.69
Br       2.30      16.76       2.20
N       4.66      16.46       0.80
H       3.23       9.67       6.55
N       1.53      10.10       7.75
H      -0.19      12.31       6.18
N       5.65      15.57       0.44
N       0.46      10.92       7.63
H       3.26      13.24       6.20
C       4.21      14.48       1.84
C       1.75      11.21       5.81
C       3.70      11.33       4.16
F       5.64      12.30       3.13
F       1.24      11.01       2.79
C       4.28      12.15       2.92
C       2.78      13.37       5.23
F       3.55      10.02       3.82
C       1.46      12.21       3.48
F       6.19      13.39       0.82
C       2.39      11.97       4.68
F       4.65      11.36       5.18
C       3.59      13.52       2.82
C       3.70      14.13       4.25
F       4.13      11.41       1.78
C       2.07      13.31       2.57
