30

H      17.65      20.16      13.17
H      18.37      18.54      14.96
H      18.33      16.24      14.67
H      18.42      14.34      13.06
H      19.84      16.99      10.00
H      18.85      19.59      10.62
H      21.29      19.02       9.81
H      22.92      20.26      11.41
H      21.44      21.55      13.18
H      21.43      19.86      13.70
H      19.36      21.38      12.04
N      18.92      18.76      14.13
O      17.57      21.54      15.17
O      19.84      21.37      15.25
O      20.32      14.34       9.76
O      18.29      13.58      10.47
C      18.70      21.09      14.76
C      18.66      20.09      13.60
C      18.97      17.71      13.21
C      18.65      16.40      13.63
C      18.70      15.34      12.75
C      19.16      15.55      11.44
C      19.49      16.84      11.03
C      19.36      17.94      11.88
C      19.63      19.35      11.36
C      21.02      19.47      10.76
C      21.86      20.11      11.59
C      21.17      20.54      12.86
C      19.67      20.42      12.49
C      19.26      14.41      10.49
