16

O      25.17       6.38       7.41
O      26.50       8.20       7.41
C      25.51       7.53       6.98
C      22.23       9.93       2.63
C      24.67       8.14       5.87
C      23.07       9.31       3.74
C      23.55       7.46       5.32
C      24.20       9.99       4.29
C      22.77       8.04       4.29
Cl      24.69      11.54       3.74
Cl      21.44       7.09       3.74
Cl      26.30      10.36       5.87
Cl      23.05       5.91       5.87
O      22.57      11.07       2.20
O      21.24       9.26       2.20
C      24.98       9.42       5.32
