18

C      30.82      17.57      27.64
C      29.77      20.60      29.31
C      31.99      18.19      27.21
C      28.61      19.98      29.75
C      30.58      19.72      28.54
C      30.01      18.45      28.41
H      29.65      16.06      27.74
H      30.95      22.11      29.21
O      26.57      19.68      30.83
O      27.59      21.73      30.92
O      30.08      21.89      29.60
C      33.08      17.66      26.40
S      32.10      19.86      27.74
S      28.50      18.31      29.22
O      34.03      18.49      26.13
O      30.52      16.28      27.35
O      33.01      16.44      26.05
C      27.51      20.51      30.56
