16

O       0.67       4.14       7.86
O       0.85       2.95      16.45
C       1.78       4.38       8.44
O       3.05       3.52      16.42
O       2.84       4.77       7.86
C       2.80       4.57      10.81
C       0.92       3.05      13.49
C       1.83       4.17       9.89
C       1.88       3.46      14.40
C       1.25       3.46      12.17
C       2.46       4.16      12.12
C       1.92       3.29      15.86
S       0.51       3.31      10.63
S       3.21       4.31      13.66
Cl       4.20       5.48      10.48
Cl      -0.47       2.12      13.83
