30

H      12.02       9.47       5.28
H      12.14       8.99       7.96
H      14.41       8.98       8.25
H      12.35       5.85       5.04
H      14.59       6.41       4.82
N      15.05       6.26       9.58
N      14.21      11.29       6.69
N      12.38       4.29       7.75
H      14.87       5.63       6.37
H      15.68       9.24       4.45
H      12.08       7.31       8.51
O      14.77       8.93       4.28
O       9.95       8.54       6.56
H      12.56       8.12       4.29
O      10.05       6.32       6.16
O      16.75       9.03       6.33
O      16.84       6.83       6.88
C      10.57       7.45       6.33
C      14.71       7.79       6.46
C      14.08       8.00       7.88
C      16.24       7.89       6.56
C      12.62       8.56       5.30
C      14.11       8.90       5.54
C      12.53       7.99       7.76
C      12.77       6.20       6.00
C      12.10       7.55       6.34
C      14.60       7.02       8.83
C      14.30       6.43       5.87
C      14.20      10.23       6.19
C      12.49       5.14       6.97
