34

H       7.50       3.61      10.24
H      13.47       4.87       4.83
H      12.13       3.15       8.78
H      11.65       4.58       9.67
H      12.21       5.97       7.86
H      12.96       4.54       7.14
H      10.10       1.84       7.34
H       9.50       5.65       9.27
H       9.95       6.74       7.23
H       8.85       5.63       6.41
H       8.72       2.88       7.05
C       9.95       1.47       9.99
C       8.23       2.81      10.25
C       9.50       2.76       9.64
C      12.68       5.57       4.57
C      10.85       6.77       4.41
C      11.46       5.78       5.23
C      11.53       4.06       8.72
C      12.02       4.93       7.54
C       9.80       2.89       7.23
C       9.31       5.00       8.40
C      10.04       3.66       8.56
C      10.95       5.00       6.41
C      10.53       3.54       6.05
C       9.72       5.67       7.08
I       9.08       7.87       4.47
I      12.26       2.25       5.54
I       9.20       3.49       4.30
I      11.72       0.49       9.49
N       9.02       0.81      10.71
N       7.95       1.64      10.86
N      12.78       6.32       3.46
N      11.64       7.08       3.36
F       7.89       4.84       8.35
