27

C      13.23       0.71       4.88
C      11.76       0.91       4.72
H      11.33       0.69       6.83
C      10.92       0.87       5.84
C       9.54       1.03       5.69
H       8.88       0.97       6.55
C      11.20       1.09       3.45
O      13.93       0.74       3.81
H      11.85       1.08       2.58
H       9.39       1.39       2.30
C       9.83       1.26       3.29
O      13.68       0.53       6.06
H       8.63       3.58       3.16
O       7.63       1.33       4.36
C       9.00       1.25       4.42
C       6.96       2.27       3.61
C       7.57       3.41       3.05
O       5.16       6.23       1.19
H       3.72       2.88       2.77
C       4.80       3.01       2.84
C       4.56       5.15       1.53
O       3.34       4.87       1.29
H       5.14       1.21       3.98
H       7.22       5.23       1.95
C       5.39       4.15       2.26
C       5.58       2.08       3.51
C       6.77       4.33       2.38
