26

C       1.15       5.43       6.01
H       2.20       3.40       4.57
C       2.54       5.53       6.25
H      -0.76       6.43       6.03
H       0.72       4.47       5.71
C       3.05       6.77       6.69
C       3.91       2.20       5.07
C       0.83       7.74       6.65
O       6.86       0.78       6.67
H       6.34       3.04       7.28
O       0.54      10.05       7.06
O       5.58      -0.12       5.03
C       5.88       0.82       5.81
H       2.60       8.80       7.23
O      -1.32       8.76       6.93
H       4.90       5.04       7.51
H       4.12       6.91       6.85
C       5.43       3.13       6.69
C       5.07       2.08       5.83
H       3.64       1.39       4.39
C       3.10       3.32       5.19
C       0.31       6.52       6.21
C      -0.08       8.91       6.89
C       2.20       7.85       6.88
C       3.42       4.36       6.08
C       4.62       4.25       6.81
