12

C       1.42       7.04       0.22
C       6.43       3.12       0.22
C       2.40       6.29       0.21
C       5.47       3.88       0.21
C       3.45       5.47       0.21
C       4.42       4.71       0.21
C       0.28       7.91       0.19
O      -0.60       7.65      -0.70
C       7.56       2.23       0.19
O       7.47       1.25      -0.62
O       0.27       8.85       1.05
O       8.53       2.52       0.96
