14

C       6.50       4.20       1.97
H       7.24       8.71      -0.30
C       6.43       8.26      -0.87
C       5.94       5.03       0.87
H       5.14       4.58       0.30
H       5.13       6.64      -1.15
C       5.95       7.04      -0.55
O       4.99       8.54      -2.74
C       6.43       6.25       0.55
H       7.25       6.65       1.15
O       7.39       4.75       2.74
O       6.25      10.29      -2.10
O       6.13       3.00       2.10
C       5.88       9.09      -1.97
