28

H       3.63       4.62       5.79
H       3.46       2.19       5.61
H       7.33       1.92       7.59
H       7.40       4.40       7.56
H       2.18      -2.05       7.62
H       6.02      -2.32       5.60
H       5.85      -4.75       5.77
H       2.11      -4.53       7.59
C       4.44       3.99       6.16
C       4.33       2.61       6.11
C       5.36       1.81       6.64
C       6.49       2.47       7.17
C       6.53       3.86       7.18
C       5.29       0.35       6.65
C       4.22      -0.47       6.67
C       3.02      -2.60       7.20
C       4.14      -1.94       6.65
C       5.15      -2.74       6.10
C       5.05      -4.12       6.15
C       2.97      -3.99       7.20
N       5.51       4.60       6.69
N       3.98      -4.73       6.70
N       6.64      -0.29       6.65
N       2.87       0.17       6.74
O       7.20      -0.34       5.55
O       7.08      -0.69       7.73
O       2.24       0.21       5.68
O       2.48       0.57       7.84
