13

S       4.51       1.79      20.20
H       3.00       2.27      16.94
C       2.43       3.50      19.43
H       4.84       0.32      16.91
O       6.69      -0.22      20.52
C       6.19      -0.26      19.34
C       3.60       1.95      17.79
C       3.44       2.50      19.05
C       4.58       0.94      17.77
O       2.07       3.55      20.66
O       6.48      -1.09      18.41
O       1.97       4.21      18.48
C       5.17       0.75      19.00
