25

C       5.28       8.12       5.95
H      -0.08      14.92       5.66
H       1.55      16.39       4.42
H       3.82      15.46       3.85
H       4.36      13.09       4.55
H       4.20       5.43       8.45
H       2.84       7.52       8.24
H       5.62       8.86       5.23
H       6.81       6.68       5.48
C       5.95       6.91       6.10
N       2.11       9.69       7.10
C       4.13       8.36       6.71
C       0.92      14.56       5.38
C       1.82      15.37       4.69
C       3.08      14.85       4.37
C       3.39      13.54       4.75
C       2.43      12.80       5.44
C       2.65      11.45       5.94
C       3.34       9.57       6.54
C       4.48       6.22       7.74
C       3.74       7.38       7.64
N       1.68      10.90       6.70
N       3.72      10.65       5.80
N       1.21      13.31       5.74
N       5.56       5.96       6.97
