26

C       0.45      12.15       1.83
H       2.99       8.71       4.65
C      -0.17      13.67      -0.02
H       2.05      10.07       2.77
C       0.73      13.20      -1.01
C       0.78      13.87      -2.22
H      -0.51      12.00       5.67
C      -0.84      15.39      -1.58
H       0.54      10.56       7.42
H      -0.68      12.55       3.54
C      -0.98      14.78      -0.35
H      -1.04      13.61       1.82
H       1.37      12.35      -0.81
N       1.80       9.57       6.11
N       0.05      11.94       3.14
H       1.46      13.53      -3.00
N      -0.32      13.14       1.23
H      -1.45      16.26      -1.85
H      -1.68      15.17       0.37
N       0.02      14.95      -2.53
C       2.20       9.44       4.83
O       1.37      11.55       1.27
C       1.68      10.19       3.79
C       0.67      11.14       4.07
C       0.25      11.27       5.41
C       0.84      10.48       6.38
