35

C       0.96       4.94      31.86
F      -1.28      10.16      32.27
C      -3.95       9.54      26.81
H      -1.62       3.43      30.21
C       0.39       6.18      32.08
F      -3.19       8.71      33.50
H       1.97       4.72      32.23
C      -0.90       6.46      31.62
C      -1.61       5.46      30.94
C      -2.64       7.56      33.01
H       0.96       6.93      32.63
C      -0.65       8.95      32.28
C      -2.28       8.26      30.54
H      -4.15       8.96      31.38
C      -3.56       8.82      30.48
H      -5.09       9.67      29.21
C      -1.62       7.80      31.85
C      -4.09       9.23      29.26
H      -1.46       8.46      27.23
O       2.07       2.42      31.40
H      -0.53       7.70      29.39
C      -3.35       9.09      28.08
C      -2.06       8.55      28.14
O      -3.27       9.46      25.70
C      -1.53       8.13      29.36
O      -5.13      10.01      26.81
O       0.22       1.66      30.42
H      -2.62       5.66      30.57
F       0.41       9.05      31.42
C       0.88       2.61      30.99
F      -0.13       8.79      33.53
C       0.25       3.94      31.18
F      -2.04       6.94      34.06
C      -1.05       4.21      30.72
F      -3.67       6.76      32.61
