32

C      16.55       4.00       9.96
H      13.51       6.95      13.04
H      18.06       5.56      10.61
C      13.27       2.45       9.28
H      17.94       4.19      11.74
C      11.69       3.97       9.42
H      16.76       4.26       8.91
C      15.68       7.61      14.63
H      16.60       2.91      10.07
H      17.89       5.27      13.97
C      14.50       0.48       8.79
N      17.38       6.58      15.56
H      11.08       4.85       9.56
H      14.86       8.32      14.56
N      12.15       1.91       8.77
H      12.23       5.70      11.41
N      11.16       2.87       8.85
N      16.43       7.54      15.75
H      14.24       0.53       7.72
H      13.84      -0.23       9.31
H      15.53       0.14       8.90
O      14.45       1.78       9.38
C      16.13       6.66      13.69
C      13.05       3.78       9.72
C      15.31       4.64      10.57
C      13.91       4.67      10.50
C      13.32       5.60      11.40
C      14.05       6.32      12.33
C      15.46       6.18      12.49
C      16.04       5.36      11.51
C      17.38       4.81      11.03
C      17.23       6.06      14.33
