30

H      32.27      14.94       4.14
H      34.31      13.62       2.27
H      34.64      14.33       3.86
H      34.18      11.63       3.64
H      31.69      11.28       3.11
H      30.50      13.75       2.95
H      31.63      13.24       1.68
H      30.95      13.12       5.36
H      30.47      10.42       5.16
H      30.82      11.13       6.74
H      32.83       9.79       4.86
H      33.50      11.48       7.32
H      34.62      10.96       6.05
H      33.44      13.44       5.91
O      31.42      16.16       1.85
O      33.70      16.22       1.90
O      33.68       8.53       7.12
O      31.40       8.55       7.15
C      32.57      15.73       2.22
C      32.56      14.54       3.15
C      33.89      13.78       3.28
C      33.49      12.44       3.91
C      31.97      12.23       3.58
C      31.54      13.45       2.76
C      31.63      12.30       5.10
C      31.23      10.97       5.73
C      32.55      10.19       5.85
C      33.58      11.27       6.24
C      33.16      12.50       5.43
C      32.54       9.00       6.78
