30

N       2.17      22.46      15.37
C      -4.15      34.00      14.98
H      -2.71      29.75      12.84
H       1.06      31.21      14.36
H      -1.79      27.46      12.76
N      -4.58      35.01      15.73
N      -3.47      35.66      16.23
N       1.01      21.99      14.78
O       3.30      24.49      15.58
O      -5.02      33.14      14.39
H      -0.55      22.87      13.65
H      -1.38      35.40      16.04
H       3.18      25.41      15.29
C       0.44      30.39      14.00
C      -1.17      28.28      13.10
H      -4.49      32.46      13.93
C      -0.91      30.64      13.65
C       0.15      28.01      13.55
C      -1.68      29.57      13.15
C       0.96      29.10      13.95
C      -1.50      31.90      13.92
C       0.59      26.68      13.69
C       0.85      25.52      13.96
C      -2.00      32.92      14.36
C       0.39      23.02      14.18
C      -2.37      35.05      15.77
C       1.14      24.20      14.35
C      -2.74      33.96      14.95
H       1.98      28.92      14.26
C       2.25      23.77      15.11
