16

C       7.50       6.53      20.51
O       7.64       7.71      17.06
C       7.56       6.66      19.13
C       7.61       2.96      20.27
O       7.49       9.00      18.95
C       7.52       5.19      20.94
C       7.59       4.31      19.85
C       7.55       2.83      21.65
F       7.43       7.55      21.38
F       7.68       1.94      19.41
C       7.56       7.89      18.32
S       7.63       5.12      18.33
S       7.47       4.37      22.46
O       7.47       1.78      23.73
C       7.55       1.61      22.46
O       7.62       0.50      21.84
