36

N       0.65       4.05      11.49
N      -0.72       5.05      13.73
N       0.04       9.63      12.18
N       1.01       8.64       9.74
O      -0.88       7.70      15.21
O      -2.24       8.41      13.54
H       0.97       3.79      10.56
H       1.58       2.30      12.09
H       0.33       2.86      13.23
H       1.90       3.68      13.17
H      -0.85       5.52      14.63
H      -2.28       3.70      14.11
H      -1.72       3.74      12.42
O       2.80       6.43       9.09
H      -0.66      10.07      11.59
O       1.42       4.65       8.98
H      -2.77       5.05      13.04
H       1.98      10.38      11.53
H       0.95      11.48      12.50
H       0.74       9.58      10.01
H       1.76      10.11      13.27
H       0.32       7.47       8.11
H       1.90       8.23       7.84
H       0.41       9.22       7.82
C       1.76       5.78       9.49
C      -1.17       7.87      13.96
C       0.49       5.41      11.62
C      -0.15       5.93      12.78
C      -0.26       7.32      12.91
C       0.21       8.23      11.95
C       0.75       7.72      10.74
C       0.95       6.32      10.60
C       1.13       3.18      12.56
C      -1.94       4.36      13.31
C       1.25      10.44      12.36
C       0.92       8.38       8.31
