36

N       7.75       7.91      12.82
N      -0.10       3.68       8.86
N       8.22       3.64       4.34
N       4.59       5.10      10.03
N       4.84       3.80       8.05
N       6.68       5.05       8.89
H       5.88       8.10      13.73
H       4.71       6.66      12.07
H       8.51       6.11      10.08
H       9.54       7.60      11.81
H       0.21       2.78       7.02
H       2.72       3.06       7.11
C       5.78       6.85      11.97
H       2.21       4.96      10.95
C       6.52       6.28      10.94
H      -0.26       4.62      10.70
C       7.90       6.55      10.86
H       9.88       4.51       5.25
C       6.43       7.65      12.90
H       5.22       3.00       5.72
H       8.74       4.82       7.46
C       0.71       3.24       7.87
C       8.47       7.37      11.82
C       5.90       5.42       9.91
H       6.49       2.76       3.60
C       2.66       4.03       9.04
C       1.81       4.47      10.07
C       2.09       3.40       7.93
C       4.12       4.31       9.06
C       8.85       4.19       5.40
C       8.21       4.36       6.63
C       6.88       3.94       6.76
C       6.25       3.33       5.66
C       6.96       3.20       4.48
C       6.10       4.25       7.98
C       0.44       4.27       9.94
