10

H       8.92       3.65      10.66
C       8.99      -0.09      11.22
H       8.98      -1.17      11.36
H       9.05       2.01       8.71
C       9.00       1.67       9.74
N       8.96       2.14      12.09
N       9.00       0.34       9.94
C       8.96       2.57      10.81
C       8.98       0.81      12.29
H       8.98       0.48      13.33
