15

O       6.47       0.48      13.34
C       7.95      -1.95       9.50
C       6.74      -2.68       9.46
N       8.07      -3.40       7.85
H       5.18      -1.22      12.08
C       8.18      -0.98      10.48
C       5.94      -1.47      11.34
N       6.86      -3.56       8.42
C       7.40       0.21      12.54
C       5.70      -2.43      10.38
H       9.13      -0.45      10.52
C       7.17      -0.76      11.41
H       4.76      -2.97      10.33
N       8.73      -2.44       8.48
O       8.59       0.71      12.62
