26

C       7.69       2.33       9.02
S       6.75      -4.46       6.23
N       5.41      -4.10       8.58
H       4.99      -1.48      10.68
H       4.34      -3.87      10.34
N       8.99       4.80       9.07
H       7.29      -1.76       7.03
H       6.22       3.31      10.29
H       7.45       5.51      10.26
H      10.42       4.00       7.80
H       9.32       1.74       7.70
O       7.14      -5.78       6.60
O       5.81      -4.16       5.19
O       8.10      -3.65       5.84
H       8.86      -4.17       6.19
C       5.35      -2.03       9.81
C       4.98      -3.35       9.63
C       6.22      -3.51       7.69
C       6.64      -2.19       7.78
C       6.20      -1.41       8.87
C       6.63      -0.08       8.98
C       7.08       1.06       9.01
C       7.15       3.42       9.74
C       7.83       4.63       9.73
C       9.50       3.78       8.35
C       8.88       2.54       8.29
