45

C      -5.99      -6.44      15.94
C      -6.86      -6.82      16.98
C      -6.70      -6.29      18.25
C      -7.71      -8.32      12.63
H      -7.07      -3.59      20.48
C      -6.80      -8.90      13.55
C      -8.37      -9.14      11.72
C      -8.13     -10.52      11.68
C      -7.12     -11.06      12.51
C      -6.49     -10.26      13.46
C      -4.36      -5.41      20.78
C      -5.41      -4.99      19.92
H      -7.67     -13.12      10.24
C     -11.47     -10.70      11.58
C      -3.63      -7.57      20.12
C      -2.43      -8.45      20.35
N      -5.63      -4.07      21.97
H      -9.12      -8.70      11.05
H      -7.92      -7.26      12.71
H      -7.66      -7.53      16.75
H      -7.38      -6.59      19.05
H      -6.92     -12.13      12.49
H      -4.32      -5.19      15.37
H      -5.79     -10.69      14.18
H      -3.97      -4.33      17.70
N      -6.14      -6.99      14.65
N     -10.84     -12.71      10.52
N      -6.35      -8.24      14.70
N      -9.77     -13.44      10.19
N      -4.51      -4.86      22.00
H     -11.22      -9.69      11.96
O     -12.64     -11.12      11.67
O      -3.30      -6.23      20.57
H      -3.92      -7.53      19.05
H      -4.51      -7.92      20.69
H      -2.17      -8.49      21.41
H      -2.65      -9.47      20.01
H      -1.56      -8.08      19.79
C      -6.18      -4.16      20.74
C     -10.43     -11.51      11.00
C      -8.65     -12.71      10.45
C      -9.00     -11.47      10.99
C      -5.64      -5.42      18.53
C      -4.79      -5.02      17.49
C      -4.98      -5.50      16.19
