42

H       2.43       5.06       4.49
C       2.38      11.56       2.49
C       3.50       7.52      -2.93
N       3.07       5.60       6.42
N       2.45       9.99       0.15
N       2.74       9.22      -0.83
H       6.12      13.56      -4.45
N       6.86      12.94      -6.33
N       6.74      11.80      -7.08
N       3.18       6.77       7.11
H       4.33      12.86      -3.19
H       3.10      11.88      -1.26
H       2.33       9.96       4.66
H       4.85       8.90      -4.82
H       1.78       7.38       0.46
H       1.70       6.20       2.64
H       5.73       9.96      -6.83
H       2.78       8.79       6.67
H       2.29      11.99       3.50
H       3.37      11.84       2.09
H       1.64      12.03       1.84
H       4.00       7.01      -3.77
H       3.88       7.10      -1.99
H       2.43       7.28      -2.97
C       5.54      11.51      -5.19
C       2.77       7.77       6.31
C       2.59       5.87       5.20
C       2.39       7.25       5.06
C       6.15      12.78      -5.20
C       2.10       7.98       3.82
C       5.96      10.94      -6.40
C       1.86       7.28       2.62
C       1.89       7.93       1.40
C       2.14       9.31       1.33
C       2.20      10.07       2.53
C       2.20       9.38       3.75
C       3.48      11.25      -2.06
C       4.18      11.78      -3.12
C       3.27       9.86      -1.96
C       4.71      10.94      -4.13
C       4.45       9.57      -4.05
C       3.73       9.00      -3.00
