22

H      16.09       5.69       0.34
H      17.35       5.08       1.43
H      15.77       7.58       1.82
H      17.06       6.93       2.87
H      13.48       7.05       2.09
H      12.90       5.92       3.33
H      13.79       5.18       0.58
H      13.18       4.10       1.84
H      14.79       4.19       3.95
C      15.61       2.98       1.64
C      15.34       4.44       1.97
C      16.33       5.47       1.39
C      16.13       6.68       2.33
C      15.07       6.15       3.33
C      13.70       6.10       2.60
C      13.89       4.91       1.63
C      15.09       6.90       4.65
N      15.49       4.72       3.43
O      14.66       2.15       1.87
O      16.75       2.68       1.17
O      16.19       6.94       5.29
O      14.01       7.49       4.99
