18

H       6.82       4.49       1.94
S       6.44       4.63      -1.33
S       3.37       5.54       1.35
N       2.77       5.93      -2.00
O       6.29       4.98      -4.28
O       5.87       4.95       4.33
O       3.64       5.45       4.31
O       4.06       5.45      -4.34
H       1.93       5.86      -1.43
H       2.65       5.82      -3.00
C       5.16       5.20      -3.72
C       4.75       5.16       3.75
C       3.94       5.47      -1.50
C       5.86       4.76       1.50
C       5.07       5.15      -2.28
C       4.77       5.09       2.28
C       5.55       4.86       0.13
C       4.24       5.29      -0.11
