16

H       9.98       8.38       6.16
H      15.82       4.77       8.20
C      11.27       5.79       7.70
C      13.12       7.17       6.83
C      12.68       5.97       7.52
C      13.70       5.07       7.98
C      12.10       8.07       6.37
C      15.03       5.42       7.83
C      10.77       7.73       6.53
C      14.53       7.35       6.64
N      10.38       6.62       7.18
N      15.42       6.53       7.17
Cl      10.59       4.54       8.64
Cl      15.21       8.59       5.69
Cl      13.44       3.53       8.68
Cl      12.36       9.62       5.68
