28

C       5.37       7.04      17.91
H       3.99       1.51      12.92
C       2.21       4.11      12.02
C       7.32       6.04      17.75
C       6.16       6.31      17.01
H       5.46       1.70      14.86
H       7.97       3.40      15.37
C       3.34       3.66      12.74
C       6.04       4.50      15.27
C       5.33       3.84      14.27
H       6.78       2.88      16.61
H       6.66       2.17      13.62
H       8.22       5.50      17.45
H       4.36       7.44      17.77
C       5.71       5.78      15.73
C       4.24       4.41      13.60
H       1.82       5.12      11.90
C       4.02       5.77      13.93
H       3.24       6.33      13.41
N       2.27       1.91      11.76
H       4.46       7.46      15.18
N       6.00       7.17      19.09
C       3.31       2.26      12.54
N       1.60       3.06      11.45
N       7.23       6.57      18.99
C       4.72       6.42      14.95
C       6.07       2.53      14.48
C       6.90       3.29      15.59
