16

C      12.72       7.50      12.15
C      13.28       8.78      12.29
O      15.71       5.54       9.76
F      12.77      10.90      13.32
F      13.23       5.39      11.11
O      10.28      10.76      14.64
O       9.22       8.73      14.55
C      15.81       6.75      10.14
S      11.20       7.34      12.94
S      14.80       8.95      11.49
C      10.18       9.54      14.28
O      16.77       7.56       9.89
C      12.44       9.63      13.05
C      13.55       6.66      11.38
C      11.28       9.00      13.48
C      14.71       7.29      10.95
