23

C       9.47       4.03      11.39
O      10.59       9.07      15.23
C      10.32       7.89      15.62
H       8.74       3.87       8.05
C       8.94       3.56       9.08
H      10.88       8.16      13.01
C      10.47       7.18      13.22
H       9.69       2.22      12.58
C       9.46       2.64      11.60
C       9.64       5.58      14.83
H       9.40       5.35      15.87
C       9.19       4.47      10.08
H       9.15       5.54       9.86
H       8.96       3.69      14.04
C       9.42       4.66      13.81
H       9.16       0.70      10.68
C       9.18       1.78      10.54
C      10.27       6.25      12.20
H      10.56       6.50      11.18
N       8.93       2.23       9.30
O      10.16       7.52      16.83
C      10.15       6.86      14.54
C       9.73       4.98      12.48
