20

H      11.05       6.71      13.55
H      11.93       5.17      13.46
H      13.72       6.12      14.97
H      12.83       7.66      15.05
C      16.02       8.54      13.55
O      16.99       9.16      13.02
C      11.83       6.33      10.02
O      15.83       8.33      14.80
O      10.87       5.75      10.63
O      11.96       6.46       8.77
C      12.91       6.89      10.89
C      14.98       7.99      12.63
C      12.86       6.79      12.28
C      15.04       8.10      11.23
C      13.85       7.32      13.11
C      14.04       7.57      10.39
C      12.04       6.26      13.44
C      13.16       6.86      14.38
F      16.06       8.71      10.60
F      14.24       7.75       9.07
