48

C       4.30       9.61       2.03
C       6.57       9.83       1.77
C       8.08      11.24       3.00
C       7.24      11.64       4.10
C       7.67      12.60       4.99
C       8.95      13.19       4.87
C       9.81      12.77       3.83
C       9.40      11.82       2.93
C       9.36      14.29       5.78
C       2.87      10.89       3.47
C       1.86      10.72       4.47
C       1.49      11.77       5.29
C       2.10      13.03       5.14
C       3.07      13.24       4.13
C       3.45      12.19       3.31
C       1.66      14.13       6.02
O       2.19      15.32       5.93
O      10.53      14.78       5.63
O       0.72      13.94       6.85
O       8.53      14.71       6.66
N       5.24       7.39      -0.51
N       7.80      10.38       2.00
N       3.16       9.79       2.77
N       4.22       8.65       1.09
H       9.45       7.30      -2.44
H       7.94       8.12      -0.63
H       4.73       5.75      -2.31
H       6.23       4.97      -4.13
N       6.59       8.81       0.88
N       5.44      10.29       2.34
H       6.26      11.19       4.20
H      10.03      11.49       2.11
H       7.02      12.92       5.80
H      10.80      13.23       3.75
H       1.41       9.74       4.56
H       4.20      12.34       2.53
H       0.74      11.65       6.06
H       3.51      14.22       4.01
C       5.77       6.07      -2.35
C       6.21       7.00      -1.35
C       8.85       5.74      -4.51
C       7.94       6.10      -3.40
C       8.41       6.97      -2.40
C       7.58       7.43      -1.40
O       8.40       5.23      -5.62
O      10.10       5.95      -4.39
C       6.61       5.64      -3.36
C       5.39       8.32       0.50
