10

C       5.04       5.52      11.30
C       5.04       5.58      12.65
C       5.04       5.63      13.87
O       3.86       5.45       8.09
O       6.14       5.35       8.05
O       3.92       5.63      15.89
O       6.20       5.69      15.87
C       5.01       5.41       8.63
C       5.05       5.65      15.32
C       5.03       5.46      10.08
