55

H      -3.58       9.35      12.78
H       0.92       5.86       6.75
H      -3.84       5.16       6.95
H      -5.87       9.75      13.24
H      -8.28       9.64      12.58
H      -1.78       8.57      11.33
H      -1.15       3.11       5.36
H       0.13       3.76       6.41
H      -0.61       4.85       3.64
H       0.73       5.43       4.62
H       1.79       3.12       4.53
H       1.56       3.79       2.90
H       0.45       2.56       3.52
H      -6.77       7.12       8.21
H      -6.26       5.31      10.20
H      -5.70       4.00       9.13
H      -8.42       5.41       8.96
H      -7.87       4.12       7.87
H      -7.71       2.54       9.86
H      -9.35       3.18       9.66
H      -8.29       3.84      10.92
H      -0.36       8.01      10.22
C      -4.64       6.38       8.48
C      -3.61       5.89       7.72
C      -2.28       6.28       7.95
C      -1.99       7.12       9.06
C      -1.21       5.78       7.14
C       0.10       6.17       7.39
C      -0.64       7.41       9.36
C      -7.50       9.22      11.95
C      -6.89       8.14       9.84
C      -5.52       8.02      10.26
C       1.78       7.35       8.82
C      -9.32       8.53      10.40
C      -7.88       8.64      10.72
C       0.37       6.97       8.52
C      -6.18       9.27      12.31
C      -0.58       4.02       5.61
C      -5.18       8.69      11.49
C       0.14       4.54       4.38
C       1.04       3.44       3.80
C      -6.36       4.87       9.20
C      -7.80       4.51       8.90
C      -8.31       3.46       9.89
C      -4.45       7.37       9.52
C      -3.09       7.63       9.86
C      -2.82       8.38      11.04
C      -3.82       8.83      11.85
O       2.21       7.08       9.99
O     -10.11       9.38      10.95
O       2.44       7.90       7.88
O      -9.69       7.55       9.67
O      -1.58       4.92       6.14
O      -7.28       7.90       8.57
O      -5.90       5.85       8.21
