48

C       7.59       1.63       9.24
C       8.09       0.83       8.20
O      15.84       0.02       3.09
O       1.11       3.05       4.41
H      11.87       0.93       6.74
H      12.11       0.75      11.04
H      15.66       0.16       8.67
O      16.08       2.14       3.90
H       5.77       1.94       7.24
H       2.30       2.60       9.72
H       6.15       1.87      11.53
O       2.94       1.80       3.89
O       2.21       2.89      15.26
O      16.80      -0.22      13.94
O      14.96       1.04      14.45
O       1.95       0.77      14.47
H       9.82      -0.07       7.29
H      10.55       2.40      10.75
H       8.14       2.83      10.95
H       7.40       0.36       7.49
C      13.83       0.52       7.56
C      12.44       0.76       7.66
C      11.81       0.85       8.90
C      12.58       0.69      10.06
C      13.96       0.44       9.99
C      14.59       0.34       8.73
C       4.17       2.26      10.77
C       3.37       2.41       9.62
C       3.95       2.28       8.35
C       5.33       2.02       8.23
C       6.14       1.89       9.37
C       5.55       2.01      10.63
C      15.69       0.93       3.98
C       2.19       2.44       4.71
C       2.38       1.97      14.40
C      15.69       0.35      13.65
C       3.59       2.30      12.06
C       3.09       2.26      13.18
C       2.66       2.46       6.06
C       3.20       2.40       7.16
C      15.19       0.26      12.30
C      14.68       0.31      11.20
C      14.46       0.53       6.29
C      15.00       0.61       5.20
C       9.46       0.59       8.08
C      10.36       1.13       9.01
C       9.86       1.93      10.04
C       8.50       2.18      10.16
