14

O       2.99       6.99       8.69
O       4.55       5.98       7.38
O       7.52      12.59       6.48
O       8.77      11.56       8.08
H       6.68       7.17       7.49
H       4.50       9.08       8.52
H       8.18       9.13       8.11
H       5.85      10.67       6.80
C       6.26       8.14       7.77
C       4.96       8.18       8.13
C       7.15       9.28       7.76
C       6.81      10.49       7.28
C       7.77      11.61       7.29
C       4.12       6.96       8.06
