26

H      10.61       7.68       7.50
H      13.08       7.72       7.47
H      12.90       9.99      11.17
H      17.33       7.35       6.84
N      10.42       8.75       9.27
N      19.81       8.60       8.75
H      15.05       9.56      10.26
H      15.18       7.80       7.74
H      17.14       9.64      10.53
H      19.61       9.68      10.51
O      10.35       9.90      11.30
O      19.88       7.42       6.74
H       9.39       9.61      11.28
H      20.85       7.70       6.77
C      11.17       8.17       8.30
C      12.55       8.21       8.29
C      13.22       8.88       9.33
C      12.45       9.47      10.33
C      11.05       9.37      10.29
C      14.67       8.97       9.42
C      15.55       8.39       8.58
C      17.78       7.88       7.68
C      17.00       8.48       8.67
C      17.68       9.15       9.72
C      19.05       9.18       9.72
C      19.18       7.97       7.73
