15

H      12.79      10.38      10.30
C      14.47      10.61      11.64
N      16.83       9.81      13.19
C      13.30      11.02      11.02
H      14.90      13.38      13.57
C      15.06      11.44      12.60
N      17.81       9.82      14.08
N      12.70      12.19      11.30
H      12.79      13.96      12.37
C      14.47      12.69      12.84
C      16.24      11.01      13.35
N      16.84      11.75      14.31
H      14.90       9.64      11.41
C      13.30      13.02      12.18
N      17.81      10.97      14.75
