40

C       8.27       8.99       2.84
C       7.06       8.99       3.55
C       7.04       8.99       4.94
C       8.28       8.98       5.66
C       9.51       8.99       4.94
C       9.48       8.99       3.55
H       6.13       9.00       2.99
H      10.41       9.00       2.98
C       8.28       8.97       7.08
C       8.28       8.96       8.30
C       8.29       8.94       9.72
C       7.06       8.94      10.44
C       7.09       8.92      11.83
C       9.52       8.94      10.43
C       9.50       8.93      11.82
H       6.16       8.92      12.40
C       8.30       8.92      12.53
H      10.44       8.93      12.39
H      11.42       9.88       5.37
H      10.72       8.98       6.73
H      11.43       8.11       5.35
H       5.13       8.10       5.38
H       5.84       8.99       6.74
H       5.13       9.87       5.38
C      10.84       8.99       5.64
C       5.72       8.99       5.66
C      10.85       8.95       9.72
H       5.14       9.83      10.02
C       5.73       8.95       9.73
H       5.85       8.95       8.65
H       5.14       8.06      10.01
H      11.44       8.06       9.98
H      10.72       8.97       8.63
H      11.44       9.83      10.01
O       9.44       8.90      14.61
O       7.17       8.90      14.61
C       8.30       8.91      14.03
O       7.13       9.01       0.77
O       9.40       9.00       0.76
C       8.26       9.00       1.35
