16

C      27.69      17.59      21.25
O      27.74      25.12      18.10
S      27.34      21.31      17.29
S      27.74      20.31      21.33
O      27.72      17.80      22.51
O      27.07      23.99      16.22
O      27.70      16.46      20.65
Cl      27.75      23.78      20.78
Cl      27.39      17.79      17.88
C      27.62      22.58      19.56
C      27.52      19.01      19.07
C      27.47      22.79      18.19
C      27.42      24.06      17.45
C      27.50      20.39      18.74
C      27.62      21.20      19.87
C      27.64      18.81      20.44
