33

C       7.14       8.16      10.57
C       6.61       9.35      11.11
C       6.19      10.39      10.26
C       6.29      10.26       8.88
C       6.90       9.41       5.76
C       7.33       8.82       4.57
C       7.94       7.56       4.56
C       8.13       6.86       5.77
C       7.73       7.44       6.96
C       7.12       8.72       6.96
C       6.84       9.09       8.34
C       7.26       8.04       9.19
C       7.83       6.89       8.37
C       6.96       5.62       8.52
C       9.29       6.57       8.76
C       6.54       9.53      12.59
C       8.36       6.93       3.27
H       7.44       7.36      11.25
H       5.82      11.31      10.69
H       5.96      11.07       8.23
H       6.41      10.38       5.76
H       7.18       9.32       3.61
H       8.59       5.87       5.72
H       5.92       5.84       8.25
H       7.33       4.82       7.87
H       6.97       5.27       9.56
H       9.93       7.46       8.65
H       9.34       6.25       9.81
H       9.70       5.77       8.13
O       6.75       8.51      13.34
O       6.31      10.68      13.08
O       8.40       7.63       2.21
O       8.64       5.68       3.29
