18

O      18.88       0.45       1.78
O      20.07       2.41       1.87
O      13.49       6.32       7.49
O      12.16       4.49       7.23
H      14.75       1.78       4.18
H      13.02       2.85       5.64
H      15.70       6.10       6.47
H      17.45       5.04       5.02
C      19.07       1.66       2.15
C      18.05       2.24       2.98
C      17.20       2.75       3.69
C      16.21       3.35       4.51
C      14.95       2.73       4.68
C      13.99       3.32       5.49
C      14.26       4.53       6.14
C      15.51       5.16       5.96
C      16.47       4.57       5.16
C      13.23       5.16       7.02
