58

H       5.89      10.68       7.47
N       3.03       6.02       5.38
N       2.90      11.21      10.18
H       4.92       4.12       5.04
H       1.15       5.62       3.56
H       4.85       2.33       3.31
H       0.95      13.66      13.60
H      -0.56       5.88       7.35
H       0.29       7.38      11.41
H       5.82       9.02       4.30
Cl       4.08      13.96       9.17
Cl       0.26      11.60      11.99
H       4.23      16.68      11.79
Cl       0.56       3.89       1.49
C       2.81      15.55      13.89
O       1.71      15.85      14.48
O       3.95      16.05      14.18
O       5.05       6.79       4.61
O       1.22       5.03       6.37
O       2.04       9.63      11.69
O       5.17      11.59       9.73
O       1.91       1.31       1.11
O       4.18       1.38       1.22
O      -0.84       6.01       9.36
O      -0.94       8.74      10.50
O       7.31       9.21       5.67
O       5.80      15.49      11.27
C       4.10       6.93       5.38
C       2.01       5.97       6.36
C       1.99       7.06       7.36
C       3.02       8.03       7.35
C       4.05       8.01       6.38
C       0.99       7.11       8.35
C       1.09       8.05       9.42
C       2.09       9.00       9.41
C       3.03       9.04       8.35
C       4.08       9.99       8.38
C       5.08       9.95       7.42
C       5.06       8.98       6.40
C       2.30       9.94      10.54
C       4.14      11.00       9.46
C       3.51      13.56      10.75
C       3.64      14.55      11.73
C       2.75      14.53      12.82
C       1.74      13.58      12.86
C       1.70      12.53      11.95
C       2.73      12.37      10.97
C       4.08       4.05       4.35
C       4.04       3.05       3.39
C       2.96       2.93       2.50
C       1.91       3.87       2.57
C       1.96       4.89       3.52
C       3.03       4.97       4.40
C       3.01       1.79       1.53
C      -0.22       6.25       8.33
C       0.06       8.03      10.54
C       6.14       9.05       5.36
C       4.64      15.67      11.58
