38

H       2.39       6.00      13.83
H       2.31       3.93      14.75
H       6.83       3.02      12.94
H       5.61       5.08      12.22
H       6.90       7.40      11.03
H       5.90      10.95      10.67
H      10.44       9.63       9.18
H       8.93       7.92      10.16
H       3.13      10.44      13.04
C       3.09       8.30      13.19
C       3.77       7.10      12.87
C       3.91       4.68      13.50
C       3.30       3.74      14.34
C       3.96       2.57      14.75
C       5.29       2.35      14.27
C       5.83       3.24      13.33
C       5.17       4.39      12.92
C       6.17       1.30      14.79
C       5.36       8.40      11.82
C       7.32       9.34      10.52
C       6.89      10.65      10.35
C       7.71      11.61       9.73
C       9.04      11.25       9.35
C       9.43       9.90       9.50
C       8.60       8.95      10.05
C      10.02      12.19       8.80
C       3.63       9.50      12.80
N       3.25       5.90      13.30
N       4.90       7.17      12.17
N       6.54       8.34      11.11
N       4.79       9.57      12.11
O       7.34       1.13      14.31
O       5.76       0.58      15.79
O       3.34       1.73      15.60
O      11.19      11.81       8.46
O       9.69      13.44       8.68
O       7.18      12.83       9.52
F       1.92       8.23      13.90
