38

C     -11.34       5.61      17.39
C     -12.01       5.66      18.56
C     -11.04       8.27      21.82
C     -15.51       4.53      12.42
C     -14.12       4.75      12.48
H     -12.84       5.48      10.76
C      -9.77      10.31      22.77
C     -11.49       9.63      23.97
N     -14.93       5.29      10.44
N     -15.97       4.86      11.20
N      -9.90      11.14      23.83
N     -10.97      10.71      24.58
H     -14.52       3.38      14.81
H      -8.99       8.09      21.15
H     -13.15       8.12      22.28
H     -13.02       5.24      18.60
H     -10.55       6.34      14.95
H      -9.49       6.50      19.35
H     -11.75       6.02      12.83
H     -10.38       6.13      17.31
H     -13.34       3.73      16.94
H      -8.99      10.48      22.04
H     -13.64       6.50      20.50
H     -16.19       4.18      13.19
H     -12.35       9.12      24.40
C     -13.81       5.22      11.19
C     -10.77       9.32      22.80
C     -13.27       4.73      13.67
C     -13.66       4.05      14.84
C     -12.99       4.25      16.04
C     -11.90       5.13      16.13
C     -11.42       5.69      14.92
C     -12.10       5.50      13.73
C     -10.30       6.86      19.98
C     -10.02       7.77      20.99
C     -12.34       7.76      21.65
C     -12.61       6.84      20.64
C     -11.61       6.42      19.74
