44

O       0.37      16.69       8.08
O       6.12      16.45      -7.62
O       7.73      17.09      -9.02
H       6.17      18.24       1.87
O      10.17      17.67      -8.07
H       7.39      18.25      -0.25
H       4.25      15.87      -2.01
H       5.93      16.61      -3.41
H       8.46      17.79      -2.12
H       6.61      16.85      -5.33
H      11.38      18.08      -5.83
H      10.37      18.00      -3.56
H       4.61      17.48       3.28
H       1.88      16.66       2.13
H       3.90      17.54       5.29
H      -0.88      16.34       5.86
H       0.10      16.43       3.58
C       4.00      16.39       0.05
C       4.49      17.07       1.19
C       5.75      17.71       1.01
C       6.44      17.72      -0.19
C       5.91      17.07      -1.32
C       4.68      16.41      -1.16
C       6.55      17.03      -2.62
C       7.81      17.43      -2.92
C       8.40      17.42      -4.25
C       7.66      17.12      -5.40
C       8.21      17.18      -6.69
C       9.58      17.55      -6.87
C      10.33      17.81      -5.70
C       9.76      17.76      -4.44
C       7.30      16.88      -7.82
C       3.90      17.16       2.51
C       2.61      16.94       2.89
C       2.09      16.98       4.25
C       2.85      17.26       5.38
C       2.32      17.19       6.68
C       0.95      16.83       6.87
C       0.17      16.60       5.72
C       0.72      16.66       4.45
C       3.24      17.48       7.81
Br       2.41      15.31       0.05
O       4.42      17.90       7.61
O       2.81      17.25       9.01
