94

C       1.50      13.35       5.48
C      -1.50       5.53       5.48
C       2.23       5.22      -7.58
C      -2.23      13.65      -7.58
H      -0.28       8.52      -2.16
H       0.28      10.35      -2.16
C      -2.23      13.65       7.58
C       2.23       5.22       7.58
C      -2.77       4.85      -7.52
H       0.28      10.35       2.16
H      -0.28       8.52       2.16
C       2.77      14.03      -7.52
H      -1.59       5.05       0.00
H       1.59      13.83      -0.00
C       2.77      14.03       7.52
C      -2.77       4.85       7.52
N      -0.27       6.28      -3.49
H       0.59       6.72      -3.20
N       0.27      12.60      -3.49
H      -0.59      12.16      -3.20
N       0.27      12.60       3.49
N      -0.27       6.28       3.49
H       0.59       6.72       3.20
H      -0.59      12.16       3.20
O      -2.14       5.24      -2.63
H       1.86       5.98      -5.03
O       2.14      13.64      -2.63
H      -1.86      12.90      -5.03
O       2.14      13.64       2.63
O      -2.14       5.24       2.63
H      -1.86      12.90       5.03
H       1.86       5.98       5.03
H      -0.25       4.66      -8.54
O       3.25       5.75      -7.01
O      -3.25      13.13      -7.01
H       0.25      14.22      -8.54
O      -3.25      13.13       7.01
O       3.25       5.75       7.01
H       0.25      14.22       8.54
H      -0.25       4.66       8.54
H      -2.45       5.61      -4.96
O       2.22       4.61      -8.70
H       2.45      13.27      -4.96
O      -2.22      14.27      -8.70
H       2.45      13.27       4.96
H      -2.45       5.61       4.96
O      -2.22      14.27       8.70
O       2.22       4.61       8.70
C      -0.21       8.73       0.00
C       0.21      10.15      -0.00
O      -3.83       5.24      -6.92
O       3.83      13.64      -6.92
C      -0.43       8.03      -1.20
C       0.43      10.85      -1.20
O       3.83      13.64       6.92
O      -3.83       5.24       6.92
O      -2.71       4.27      -8.66
C      -0.43       8.03       1.20
C       0.43      10.85       1.20
O       2.71      14.61      -8.66
O       2.71      14.61       8.66
C       0.90      12.17      -1.20
C      -0.90       6.71      -1.20
O      -2.71       4.27       8.66
C       0.90      12.17       1.20
C      -0.90       6.71       1.20
C      -1.18       6.06       0.00
C       1.18      12.82      -0.00
C      -1.18       5.99      -2.49
C       1.18      12.88      -2.49
C       1.18      12.88       2.49
C      -1.18       5.99       2.49
C      -0.30       5.83      -4.83
C       0.30      13.05      -4.83
C       0.30      13.05       4.83
C      -0.30       5.83       4.83
C       0.91       5.74      -5.52
C      -0.91      13.14      -5.52
C      -0.91      13.14       5.52
C       0.91       5.74       5.52
C       0.93       5.33      -6.86
C      -0.93      13.55      -6.86
C      -0.93      13.55       6.86
C       0.93       5.33       6.86
C      -0.27       4.99      -7.51
C       0.27      13.88      -7.51
C       0.27      13.88       7.51
C      -0.27       4.99       7.51
C      -1.47       5.12      -6.82
C       1.47      13.76      -6.82
C       1.47      13.76       6.82
C      -1.47       5.12       6.82
C      -1.50       5.53      -5.48
C       1.50      13.35      -5.48
