16

C      17.22      11.31      27.76
C      15.02       8.83      29.23
C      16.12      11.97      27.23
C      16.12       8.17      29.75
C      15.42       9.98      28.50
C      16.82      10.17      28.48
O      17.26      13.72      26.17
O      14.98      13.63      26.04
H      18.23      11.66      27.60
H      14.00       8.48      29.38
O      17.25       6.51      30.94
O      14.97       6.43      30.82
S      14.60      11.21      27.62
S      17.64       8.93      29.36
C      16.12      13.20      26.42
C      16.11       6.95      30.56
