30

H       5.46       0.24      30.71
H       5.69       0.18      28.27
H       1.37       0.19      27.94
H       6.89       0.15      24.19
H       2.58       0.13      23.85
H       2.82       0.15      21.40
H       2.59       0.16      25.95
H       5.67       0.14      26.16
C       4.91       0.17      19.89
C       3.37       0.29      32.23
C       3.32       0.26      30.74
C       4.57       0.23      30.08
C       4.69       0.20      28.71
C       3.54       0.18      27.90
C       2.28       0.20      28.54
C       2.17       0.24      29.93
C       3.57       0.16      26.44
C       4.69       0.14      25.68
C       5.98       0.15      23.58
C       4.73       0.14      24.22
C       3.58       0.14      23.41
C       3.70       0.15      22.03
C       4.95       0.17      21.38
C       6.10       0.16      22.19
Br       0.39       0.25      30.60
Br       7.88       0.17      21.52
O       6.01       0.22      19.22
O       3.76       0.12      19.34
O       2.27       0.35      32.90
O       4.53       0.25      32.77
