13

H       8.25       8.27       7.92
H       8.20       7.00       4.19
H       7.05       6.23       5.26
O       7.76       5.27       8.05
O       6.26       6.68       8.94
O       8.35       4.36       3.85
O       9.66       4.60       5.63
C       7.21       6.43       8.14
C       7.76       7.55       7.26
C       8.13       6.39       5.11
C       8.76       5.03       4.84
N       8.73       7.07       6.27
H       6.91       8.06       6.77
