32

H       7.10       5.58      10.03
H      11.38      -5.18       9.98
H       7.09      -5.17       9.98
H      11.39       5.58      10.02
H       7.09       3.10      10.34
H      11.39      -2.69      10.31
H       7.09      -2.68      10.31
H      11.40       3.10      10.33
C       9.24       7.21       9.87
C       9.23      -6.80       9.85
C       8.03       5.02      10.09
C      10.45      -4.62      10.06
C       8.02      -4.61      10.06
C      10.46       5.02      10.08
C       8.03       3.65      10.26
C      10.45      -3.24      10.24
C       8.02      -3.23      10.24
C      10.46       3.65      10.25
C       9.24       2.95      10.35
C       9.24      -2.54      10.34
C       9.24       5.72      10.00
C       9.23      -5.31       9.98
C       9.24      -1.09      10.56
C       9.24       1.50      10.57
N      10.43       0.86      10.73
N       8.06      -0.45      10.73
N      10.43      -0.46      10.72
N       8.06       0.86      10.74
O       8.11       7.79       9.83
O      10.36      -7.39       9.83
O       8.10      -7.38       9.80
O      10.37       7.80       9.82
