24

H      12.78       0.79       9.44
O      11.38      -2.06       6.23
O      14.49       2.21       7.87
H      13.10      -0.64       4.66
H      10.69      -3.32       4.81
H      15.18       3.47       9.29
H      12.40      -2.83       4.57
H      13.47       2.98       9.54
H      11.07      -1.68       4.20
H      14.81       1.83       9.91
C      11.03      -1.06       9.98
C      14.84       1.20       4.12
C      12.08      -0.60       7.95
C      13.80       0.75       6.15
C      12.86       0.50       8.40
C      13.01      -0.35       5.71
C      12.17      -1.02       6.57
C      13.71       1.16       7.54
C      11.40      -2.49       4.86
C      14.47       2.64       9.24
N      10.77      -0.95      11.14
N      15.10       1.10       2.96
N      11.24      -1.28       8.75
N      14.64       1.43       5.35
