50

H       6.45      11.30       1.27
H       8.50       4.90      -1.27
H       6.45      11.31      -1.26
H       8.50       4.89       1.26
H       5.34       8.11      -7.62
H       5.33       8.09       7.62
H       9.62       8.11      -7.62
H       9.61       8.09       7.62
H       9.63       8.11      -5.11
H       9.62       8.10       5.11
H       5.33       8.10      -5.11
H       5.32       8.09       5.11
C       6.26       8.10      -5.67
C       6.26       8.09       5.67
C       6.27       8.11      -7.06
C       6.26       8.09       7.06
C       7.48       8.11      -7.76
C       7.47       8.09       7.76
C       8.69       8.11      -7.06
C       8.68       8.09       7.06
C       8.69       8.11      -5.67
C       8.69       8.10       5.67
C       7.48       8.11      -4.98
C       7.47       8.09       4.98
C       7.48       8.11      -9.26
C       7.47       8.09       9.26
C       7.85       6.90       2.89
C       7.10       9.30      -2.89
C       7.09       9.30       2.89
C       7.86       6.91      -2.89
C       7.10       9.27       1.41
C       7.85       6.93      -1.41
C       7.47       8.10       0.71
C       7.48       8.10      -0.71
C       7.85       6.92       1.41
C       7.10       9.28      -1.41
C       6.74      10.42       0.70
C       8.21       5.78      -0.70
C       6.74      10.42      -0.70
C       8.21       5.78       0.70
N       7.47       8.10       3.54
N       7.48       8.10      -3.54
O       6.34       8.12      -9.84
O       8.61       8.08       9.84
O       6.34       8.09       9.84
O       8.61       8.11      -9.84
O       8.16       5.90       3.54
O       6.79      10.30      -3.54
O       6.78      10.29       3.54
O       8.17       5.91      -3.54
