34

C      14.34       8.50      12.38
C      13.00       5.98      10.22
C      13.12       6.63       8.87
C      12.14       6.30       7.93
C      12.20       6.87       6.66
C      14.12       7.99       7.16
C      14.14       7.49       8.47
C      14.43       7.90      13.76
C      13.51       8.60      14.80
C      12.33       7.77      15.25
N      13.86       7.95      11.31
N      13.35       6.69      11.35
H      16.86      10.42      13.14
H      16.85       8.82      12.42
H      14.63      10.23      11.20
H      14.55      10.56      12.94
H      13.17       6.21      12.24
H      11.34       5.60       8.19
H      11.42       6.63       5.92
N      13.17       7.70       6.26
H      14.94       7.79       9.14
H      14.25       6.82      13.77
H      15.47       8.04      14.12
H      13.08       9.52      14.37
H      14.08       8.91      15.68
H      14.92       8.65       6.82
O      16.62      10.22       9.91
O      18.38      10.81      11.23
O      12.56       4.83      10.36
O      11.93       7.97      16.45
O      11.80       6.96      14.41
C      17.21      10.35      11.04
C      16.48       9.85      12.28
C      14.94       9.87      12.18
