36

H       3.73      22.70      12.27
H       2.96      30.01      13.24
H       2.51      25.40       9.12
H       4.17      27.30      16.39
H       1.54      28.02      13.03
H       5.14      24.69      12.48
C       3.60      31.79      17.52
C       3.09      20.91       7.99
C       3.45      21.84      10.32
C       3.24      30.87      15.19
C       3.46      22.89      11.23
C       3.22      29.81      14.28
C       3.12      24.19      10.82
C       3.57      28.52      14.69
C       2.76      24.41       9.48
C       3.93      28.30      16.03
C       2.75      23.34       8.59
C       3.94      29.36      16.92
C       3.09      22.04       8.98
C       3.60      30.67      16.53
C       2.21      26.29      11.96
C       4.48      26.42      13.55
C       2.35      27.30      12.90
C       4.34      25.40      12.61
C       3.49      27.40      13.72
C       3.20      25.30      11.79
Cl       3.87      20.25      10.86
Cl       2.82      32.45      14.65
Cl       2.33      23.65       6.93
Cl       4.36      29.06      18.58
Cl       0.72      26.24      11.06
Cl       5.97      26.46      14.45
O       2.46      32.19      17.92
O       4.22      20.51       7.59
O       4.74      32.22      17.88
O       1.95      20.49       7.63
