22

O       3.49       7.94       8.40
O       3.73       5.73       8.87
O      -5.45       5.69       8.26
O      -5.68       7.92       8.63
F      -0.85       3.83       8.84
F      -1.11       9.80       8.10
H      -3.08       4.97       8.61
H      -3.66       9.21       8.12
H       1.12       8.66       8.31
H       1.70       4.43       8.89
C       3.03       6.77       8.62
C      -4.99       6.87       8.42
C      -2.66       5.97       8.50
C      -2.98       8.37       8.23
C      -1.62       8.54       8.24
C      -0.70       7.47       8.39
C       0.70       7.66       8.42
C       1.02       5.27       8.75
C      -0.34       5.09       8.71
C      -1.26       6.16       8.53
C      -3.51       7.05       8.37
C       1.55       6.58       8.60
