24

H      20.65       9.40      11.32
S      23.24       5.12      11.44
S      21.89      11.15      13.08
H      24.62       6.96      12.98
H      23.87      11.77      12.95
H      22.71       5.40       9.44
C      24.62       9.42      13.90
C      20.76       7.01      10.24
O      24.74      10.70      13.95
O      25.36       8.61      14.52
C      23.56       8.84      13.01
C      21.75       7.56      11.23
C      22.41       9.51      12.55
C      22.88       6.86      11.74
C      21.54       8.87      11.67
O      21.12       6.03       9.49
C      23.76       7.51      12.60
O      19.63       7.57      10.20
O      23.04      12.08      12.48
O      20.69      11.50      12.38
O      21.93      11.17      14.52
O      23.57       5.11       9.88
O      24.46       4.79      12.10
O      22.03       4.38      11.70
