28

H       3.16      15.55      12.30
H       3.10      15.42       9.78
N       1.94      13.40       8.38
H       0.85      11.94      12.55
H       0.93      11.72      10.03
N       1.94      14.48       7.72
H       0.93      16.16       6.06
H       0.85      15.94       3.55
H       3.10      12.45       6.31
H       3.16      12.33       3.80
O       1.04      14.63       1.44
O       2.92      13.35       1.49
O       1.04      13.25      14.66
O       2.92      14.52      14.60
C       1.98      14.02       2.05
C       1.98      13.85      14.04
C       1.99      13.76      12.56
C       2.64      14.74      11.79
C       2.61      14.67      10.40
C       1.99      13.57       9.78
C       1.39      12.56      10.55
C       1.36      12.68      11.93
C       1.39      15.32       5.55
C       1.99      14.30       6.32
C       2.61      13.21       5.69
C       2.64      13.14       4.31
C       1.99      14.12       3.54
C       1.36      15.20       4.16
