30

C       5.05       6.31       0.41
C       2.38       7.21      -0.47
H       4.94       7.48      -1.45
C       2.72       7.05       1.03
C       4.70       6.47      -1.09
H       3.11       7.99       1.44
C       2.57       6.62      -3.88
C       4.44       5.70       3.80
C       3.78       5.94       1.22
C       3.19       6.20      -1.32
C       2.86       4.77      -0.84
H       5.47       7.24       0.82
C       3.21       4.61       0.66
H       2.60       8.23      -0.83
H       1.83       6.79       1.61
C       2.86       6.39      -2.72
C       4.12       5.81       2.63
H       5.28       5.77      -1.71
H       1.31       7.04      -0.65
H       5.80       5.52       0.56
H       3.95       3.81       0.81
H       1.79       4.57      -1.02
H       2.32       4.33       1.25
H       3.42       4.04      -1.45
O       4.45       4.34       5.67
O       1.40       6.08      -5.82
O       5.79       6.18       5.63
O       2.18       8.20      -5.53
C       4.91       5.39       5.12
C       2.04       6.99      -5.16
