27

H       2.84       6.75      15.23
H       1.77       2.59      15.33
H       0.78       7.32      16.55
C       3.67       4.28      14.47
C       2.43       4.63      15.22
H      -0.31       3.16      16.62
C       2.15       5.97      15.54
H      -2.88       5.87      19.11
O       4.44       5.24      14.12
H       1.34       5.10      18.79
C       1.54       3.62      15.60
O       3.86       3.04      14.23
H      -2.70       5.74      21.60
O      -0.96       5.57      17.44
C       1.01       6.29      16.26
C       0.39       3.93      16.32
H       1.51       4.99      21.27
O      -1.56       5.43      23.76
C       0.15       5.26      16.66
O       0.67       5.24      23.64
C      -0.78       5.50      18.81
C      -1.93       5.68      19.60
C       0.46       5.24      19.40
C      -1.82       5.61      20.98
C       0.55       5.18      20.79
C      -0.58       5.37      21.60
C      -0.46       5.33      23.08
