17

C       4.06       0.67       8.20
C       5.81      -2.40       9.01
C       5.23       1.40       8.44
C       4.66      -3.13       8.77
C       5.59      -1.02       8.81
C       4.27      -0.72       8.42
H       6.75      -2.88       9.29
S       6.57       0.39       8.94
S       3.30      -2.14       8.30
O       5.61      -5.21       9.14
O       6.58       3.32       8.61
H       2.15       0.63       7.88
C       4.54      -4.59       8.84
O       4.36       3.54       8.16
C       5.41       2.85       8.40
O       3.41      -5.12       8.61
O       2.91       1.25       7.81
