16

S       3.53       4.65      34.67
S       0.57       7.59      34.68
Cl      -0.73       4.26      34.68
Cl       4.84       7.92      34.67
C       2.12       9.87      34.68
C       2.08       2.36      34.68
O       0.95      10.43      34.69
O       3.23      10.48      34.67
C       0.92       4.70      34.68
C       3.18       7.52      34.67
C       2.00       3.83      34.68
O       3.25       1.87      34.67
C       2.74       6.17      34.67
C       1.35       6.05      34.68
O       0.99       1.67      34.69
C       2.11       8.40      34.68
