16

C      23.70       8.74      13.09
C      21.90       7.47      11.30
C      22.57       9.44      12.60
C      23.05       6.79      11.76
C      21.70       8.79      11.72
C      23.92       7.44      12.64
Cl      23.50       5.20      11.26
Cl      22.22      11.08      12.97
C      24.69       9.30      14.07
H      20.83       9.32      11.34
O      24.34      10.33      14.74
C      20.86       6.88      10.40
O      25.80       8.68      14.17
H      24.80       6.92      13.00
O      20.84       5.61      10.28
O      20.06       7.70       9.83
