35

C       9.80       2.04       7.99
C       8.67       1.95       8.83
C       8.74       2.34      10.16
C       9.94       2.57       5.53
C       9.84       2.19       4.18
C       9.20      -0.06       4.92
C       9.29       0.36       6.24
C       9.67       1.66       6.57
C       9.95       3.49      12.01
C       9.46       0.87       3.89
C       9.41       0.35       2.49
H      12.04       3.16      10.30
C      10.13       3.16       3.07
H      10.41       4.15       3.47
C      12.30       2.35       7.70
H      10.95       2.79       2.44
H       9.25       3.30       2.42
H      10.22       3.60       5.77
C       8.83      -1.47       4.59
H      12.27       1.48       7.03
H       8.79      -2.09       5.48
H       7.85      -1.49       4.09
H       9.56      -1.91       3.90
H      12.42       3.24       7.08
H      13.18       2.26       8.35
H       9.10      -0.36       7.04
O      10.51      -0.01       1.97
O       8.25       0.22       1.94
H       7.73       1.59       8.41
O       8.84       3.70      12.57
H       7.87       2.30      10.81
O      11.10       3.85      12.50
C       9.95       2.85      10.67
C      11.09       2.84       9.87
C      11.04       2.42       8.53
