28

O       5.72       7.97       7.98
O       6.60       5.92       8.38
H      14.67       7.42       4.14
H      13.00      11.32       3.38
O      18.27       9.61       1.66
H       9.31      10.16       5.50
O      17.39      11.65       1.27
H      10.99       6.25       6.27
C       6.65       7.10       7.90
C      17.34      10.48       1.75
C      16.08      10.08       2.47
C      15.91       8.79       3.05
C      14.75       8.42       3.72
C      13.69       9.32       3.85
C      13.81      10.60       3.29
C      14.98      10.97       2.62
C      12.50       8.95       4.53
C      11.48       8.63       5.12
C      10.30       8.25       5.80
C      10.18       6.97       6.35
C       9.01       6.60       7.02
C       7.91       7.50       7.18
C       8.08       8.79       6.60
C       9.24       9.16       5.93
Cl      17.10       7.53       3.00
Cl      14.94      12.59       2.01
Cl       9.05       4.99       7.63
Cl       6.89      10.05       6.65
