21

O      20.81      12.46       1.84
O      17.04      10.83       5.70
O      18.08      10.27       7.65
H      18.65      11.90       4.05
H      20.40      10.11       7.54
H      22.94      12.04       4.63
H      22.33      10.34       8.91
C      21.06      12.90       3.00
C      20.81      12.04       4.20
C      19.54      11.66       4.63
C      19.41      11.01       5.87
C      20.54      10.66       6.61
C      21.80      11.00       6.13
C      21.95      11.72       4.95
C      23.13      10.36       8.18
C      18.07      10.68       6.44
N      22.97      10.65       6.87
N      24.41      10.13       8.42
N      25.04      10.28       7.21
N      24.19      10.59       6.27
O      21.57      14.03       3.29
