27

C      13.89      10.41       4.16
C      12.56      10.13       3.54
C      12.19       8.81       3.26
C      11.68      11.18       3.24
H      12.86       7.99       3.52
C      10.47      10.92       2.60
C      10.98       8.54       2.62
H      11.97      12.20       3.48
C      10.15       9.60       2.27
H       9.78      11.72       2.32
C       9.09       9.39       0.18
H      10.70       7.52       2.35
C      10.30       9.64      -0.48
H      11.22       9.79       0.08
C       7.91       9.20      -0.54
H       6.98       9.01      -0.01
C       7.94       9.28      -1.93
H       7.02       9.15      -2.50
C      10.31       9.70      -1.87
H      11.25       9.90      -2.40
C       9.14       9.52      -2.61
C       9.19       9.56      -4.10
O      14.65       9.42       4.39
O      14.15      11.63       4.41
O       8.98       9.33       1.56
O      10.29       9.66      -4.71
O       8.06       9.46      -4.72
