24

H       4.67       0.72       1.00
C       3.86       1.09       0.39
H      -4.67      -0.72      -1.00
C      -3.86      -1.09      -0.39
H       2.40      -0.21       1.24
C       2.58       0.59       0.51
H      -2.40       0.21      -1.24
C      -2.58      -0.59      -0.51
H       1.12       2.55      -1.85
C       1.55       1.09      -0.30
H      -1.12      -2.55       1.85
C      -1.55      -1.09       0.30
H       3.50       3.32      -2.01
C       1.88       2.13      -1.19
C      -1.88      -2.13       1.19
H      -3.50      -3.32       2.01
H      -0.56       1.20      -0.80
C       3.19       2.57      -1.28
H       0.56      -1.20       0.80
C      -3.19      -2.57       1.28
C       0.19       0.58      -0.29
C      -0.19      -0.58       0.29
N       4.17       2.06      -0.50
N      -4.17      -2.06       0.50
