34

H       8.76       7.84      12.08
H       8.50       8.62      14.45
H      12.25      10.69      14.11
H       7.48       9.34      18.03
H      11.27      11.34      17.74
H      11.02      12.07      20.13
H      13.43      10.83      12.17
H      12.60      10.59      10.62
H      13.55       9.28      11.30
H       6.23      10.70      20.92
H       7.14       9.32      21.50
H       6.27       9.20      19.95
C       9.06      11.65      21.81
C      10.71       8.26      10.38
C      10.65       8.80      11.77
C       9.52       8.46      12.54
C       9.37       8.89      13.85
C      10.38       9.69      14.41
C      11.50      10.05      13.64
C      11.66       9.63      12.32
C       8.24       9.95      18.51
C       9.36      10.31      17.75
C      10.39      11.08      18.33
C      10.25      11.48      19.65
C       9.11      11.14      20.41
C       8.08      10.34      19.84
C      12.87      10.11      11.57
C       6.86       9.87      20.59
N      10.38      10.18      15.74
N       9.37       9.83      16.42
O      10.16      12.05      22.33
O      11.86       8.19       9.82
O       9.61       7.88       9.85
O       7.94      11.67      22.40
