25

O      29.76       6.74      15.39
O      29.13       7.82      17.29
O      22.53      11.37      11.79
O      23.60      10.62       9.92
O      24.32      11.50      13.99
H      27.52       9.53      17.04
H      25.70      10.82      15.85
H      28.21       7.23      13.49
H      26.83       6.41      11.80
H      26.51       7.30      10.29
H      28.02       7.60      11.19
H      25.05       8.86      10.40
C      29.03       7.56      16.05
C      27.96       8.31      15.32
C      27.26       9.32      16.01
C      26.26      10.03      15.36
C      25.92       9.74      14.03
C      26.62       8.72      13.35
C      27.65       8.01      14.00
C      26.95       7.37      11.29
C      25.27       9.13      11.43
C      24.54      10.14      12.02
C      23.47      10.77      11.19
C      24.84      10.55      13.39
N      26.26       8.43      12.03
