30

H       3.74      10.81       7.32
H       3.51      13.31       7.38
N       5.25      10.74       8.75
N       5.14      14.91       8.98
N       4.24      15.55       8.34
H       2.56      17.18       7.29
N       4.38      19.76       8.57
H       6.18      17.07       9.63
N       7.02      10.75      10.30
N       6.86      13.48      10.54
N       2.42      19.84       7.30
N       6.31      19.70       9.89
H       7.14       9.75      10.12
H       7.16      11.04      11.26
H       6.86      14.49      10.44
H       7.78      13.05      10.65
H       2.25      20.81       7.59
H       1.65      19.34       6.89
H       6.53      20.67       9.63
H       7.10      19.16      10.22
C       4.36      11.42       7.97
C       4.23      12.79       8.01
C       5.08      13.52       8.87
C       6.01      12.84       9.67
C       6.07      11.41       9.57
C       3.36      17.70       7.82
C       4.36      16.96       8.45
C       5.38      17.63       9.14
C       5.36      19.03       9.18
C       3.39      19.10       7.90
