28

H      -3.02       2.98      12.73
H      -3.01       2.66      15.21
H       0.99       1.05      14.97
H       0.98       1.43      12.50
H      -2.91       2.28      19.58
H      -2.92       1.88      22.04
H       1.05       0.23      21.81
H       1.05       0.57      19.34
C      -0.98       0.73      23.53
C      -1.00       2.51      11.01
C      -1.02       2.24      12.48
C      -2.15       2.56      13.24
C      -2.14       2.38      14.61
C      -1.00       1.85      15.26
C       0.12       1.49      14.48
C       0.11       1.69      13.11
C      -0.98       1.71      16.67
C      -0.95       1.60      17.88
C      -0.93       1.44      19.29
C      -2.05       1.82      20.07
C      -2.05       1.60      21.44
C      -0.94       1.02      22.07
C       0.18       0.68      21.31
C       0.19       0.87      19.93
O      -2.12       0.81      24.11
O      -2.09       2.87      10.47
O       0.11       2.39      10.41
O       0.12       0.40      24.10
