34

H       2.09      -5.51      15.64
H       1.92      -1.06      15.24
H       1.24       2.28      12.61
H       1.22      -1.45       9.73
H       2.23      -7.73      14.60
H       2.25      -9.15      12.58
H       1.17      -5.78      10.15
H       1.94      -3.07      15.44
H       1.20      -3.88       9.98
H       1.21       0.77      10.66
C       1.69      -8.43      10.04
C       1.68      -7.54      11.25
C       1.61       0.69      14.05
C       2.01      -7.29      13.63
C       2.01      -8.09      12.51
C       1.43      -6.18      11.13
C       1.55      -5.31      12.25
C       1.81      -5.90      13.52
C       1.47      -3.87      12.14
C       1.64      -3.04      13.29
C       1.83      -3.68      14.55
C       1.91      -5.04      14.66
C       1.31      -3.26      10.86
C       1.32      -1.90      10.72
C       1.43      -1.04      11.84
C       1.61      -1.59      13.15
C       1.34       0.36      11.67
C       1.38       1.21      12.75
C       1.73      -0.68      14.24
C       1.67       1.72      15.15
O       0.67      -8.47       9.28
O       2.75      -9.10       9.84
O       0.59       2.36      15.39
O       2.78       1.94      15.73
