28

H       9.45       5.55      12.69
H       9.36       5.50      15.19
H      13.75       5.39      12.84
H       9.26       5.96      22.10
H      13.55       5.63      22.16
H      13.59       5.59      19.66
C      11.40       5.70      23.77
C      11.64       5.65      11.13
C      11.59       5.50      12.61
C      10.36       5.51      13.28
C      10.31       5.48      14.67
C      11.50       5.45      15.43
C      12.71       5.39      14.73
C      12.78       5.41      13.35
C      11.47       5.52      16.84
C      11.45       5.63      18.06
C      11.45       5.72      19.46
C      10.25       5.85      20.19
C      10.21       5.88      21.57
C      11.41       5.78      22.28
C      12.63       5.70      21.59
C      12.65       5.67      20.20
O      10.28       5.87      24.36
O      10.53       5.89      10.54
O      12.78       5.56      10.56
O      12.50       5.44      24.34
F      13.87       5.33      15.45
F       9.08       5.93      19.49
