26

C       9.06       6.75      20.78
C      10.00       5.82      19.92
N      12.44       6.21      20.79
H       9.07       3.65      20.07
O      10.87       7.57      15.61
O       7.64       5.98      26.98
H      13.06       6.05      21.58
H      12.79       5.69      19.98
O       8.81       4.03      27.06
H      11.00       3.76      22.16
H       8.50       7.60      20.37
O      12.07       5.63      15.57
H       7.36       5.32      21.62
H      10.44       7.72      22.45
C      10.13       6.82      21.91
C      11.23       6.47      16.10
C      11.09       5.89      21.08
C       9.23       5.44      23.99
C      10.35       5.97      18.55
C       8.46       5.12      26.49
C       9.37       4.55      20.62
C      10.45       4.61      21.75
C       8.97       5.36      25.18
C      10.71       6.12      17.40
C       8.43       5.48      21.44
C       9.51       5.55      22.61
