23

N       5.68      21.25       7.63
N       6.63      16.31       7.60
H       6.31      20.72       5.71
O       3.36      22.59       7.52
H       4.59      20.39       6.04
O       2.38      21.30       9.09
H       4.46      19.87       8.70
H       4.81      15.70       6.81
H       7.92      19.42       7.64
H       4.13      18.01       6.11
H       8.43      17.07       8.30
H       6.11      20.72      10.31
H       4.47      21.15      10.83
H       5.52      22.40      10.09
C       5.96      18.92       6.83
C       3.37      21.67       8.40
C       5.61      20.34       6.47
C       4.70      20.95       8.69
C       5.46      16.57       6.98
C       7.18      18.64       7.46
C       5.09      17.85       6.59
C       7.48      17.34       7.83
C       5.23      21.33      10.07
