64

H       4.66      27.46       0.46
H       0.87      24.73       1.04
H       1.95      23.54       5.66
H      -2.80      22.11       6.24
H      -2.06      23.23       4.14
H      -2.31      21.50       8.59
H       2.41      22.94       8.03
H       2.37      25.34       5.04
H       4.49      26.18       4.08
H       5.77      25.61       1.92
H       1.84      23.92      -0.71
H       0.27      22.95      -5.50
H       5.10      23.80      -6.44
H       4.19      24.13      -4.17
H       4.73      23.30      -8.85
H      -0.06      22.30      -7.92
H       2.71      26.24      -4.22
H       3.83      27.95      -2.79
C       3.52      26.88      -0.97
C       2.92      25.76      -0.33
C       2.83      25.60       1.14
C       1.68      25.05       1.71
C       1.50      24.87       3.09
C       0.23      24.23       3.49
C      -0.02      23.52       4.77
C       0.90      23.29       5.79
C       0.50      22.73       7.03
C      -0.87      22.32       7.21
C      -1.77      22.47       6.12
C      -1.37      23.07       4.96
C      -1.28      21.81       8.45
C      -0.43      21.75       9.56
C       0.95      22.16       9.38
C       1.37      22.62       8.13
C       1.93      22.20      10.50
C       2.51      25.33       3.96
C       3.69      25.83       3.43
C       3.87      25.91       2.04
C       2.28      24.81      -1.16
C       2.23      24.94      -2.55
C       1.58      23.87      -3.36
C       2.14      23.61      -4.72
C       1.32      23.15      -5.73
C       1.81      22.96      -7.04
C       3.20      23.23      -7.32
C       4.04      23.63      -6.25
C       3.53      23.82      -4.98
C       3.68      23.09      -8.63
C       2.86      22.72      -9.69
C       1.46      22.42      -9.41
C       0.99      22.54      -8.11
C       0.52      21.96     -10.46
C       2.78      26.09      -3.14
C       3.40      27.05      -2.36
O       3.13      22.60      10.32
O       1.53      21.83      11.67
O      -0.94      21.35      10.73
O      -0.67      21.63     -10.17
O       0.95      21.91     -11.68
O       3.40      22.65     -10.92
O       4.17      27.86      -0.30
O      -0.72      24.27       2.68
O       5.10      26.27       1.55
O       0.61      23.23      -2.93
