22

Br      14.66      10.21       5.25
Br      14.47       4.69      10.33
H      17.07       3.57      10.54
H      18.81       7.52       6.65
N      12.77       7.16       7.22
N      18.61       5.65       8.39
H      12.20       8.81       6.09
H      17.01       8.97       5.80
H      13.42       5.59       8.36
H      19.32       4.13       9.59
C      14.35       8.66       6.30
C      18.43       4.66       9.26
C      17.17       4.34       9.78
C      16.06       5.06       9.35
C      16.18       6.04       8.33
C      17.52       6.33       7.91
C      15.11       6.80       7.70
C      15.43       7.91       6.84
C      16.79       8.16       6.49
C      17.78       7.37       6.97
C      13.74       6.46       7.81
C      13.05       8.27       6.51
