24

C       0.48       2.68      20.82
H       0.86      -1.33      21.72
C       1.15       3.39      19.83
H       0.19      -3.39      22.75
C      -0.04       0.57      21.96
H      -0.96      -4.59      24.60
C       0.15      -0.73      22.29
H      -2.58      -1.09      26.08
C      -0.54      -1.43      23.36
H      -1.46       0.28      24.33
C      -0.41      -2.83      23.46
C      -1.06      -3.52      24.48
C      -1.95      -1.55      25.31
C      -1.33      -0.80      24.33
N       1.96       2.80      18.94
N      -1.83      -2.89      25.39
H       2.78       1.02      18.25
H      -0.79       1.16      22.50
H       1.65      -0.40      19.94
C       2.12       1.46      19.00
H      -0.18       3.21      21.50
C       1.49       0.68      19.95
H       1.02       4.46      19.73
C       0.65       1.29      20.90
