24

C       2.07      12.08       7.40
C       5.01      12.50       5.29
H       0.40      13.01       4.61
C       5.44      12.90       4.02
C       6.80      12.86       3.72
H       2.76      13.19       3.80
H       1.93      11.77       8.44
C       7.71      12.43       4.69
H       4.73      13.24       3.27
C       7.20      12.03       5.93
C       9.19      12.39       4.42
H       7.18      13.17       2.75
H       7.86      11.66       6.72
N       3.33      12.14       6.96
N       5.89      12.06       6.22
C      -0.45      12.15       7.02
O      -1.29      12.11       6.09
C       0.98      12.36       6.58
O      -0.66      11.99       8.27
C       1.24      12.78       5.27
O       9.92      11.91       5.33
C       2.55      12.87       4.82
O       9.54      12.86       3.29
C       3.59      12.51       5.69
