16

F      13.88       4.00       4.90
C      13.52       3.27       5.97
C      10.71       2.05       7.86
C      14.41       2.61       6.81
C       9.84       2.71       7.00
C      12.05       2.26       7.48
H      10.36       1.45       8.70
C      12.17       3.08       6.34
C      15.87       2.56       6.76
O       7.80       2.01       7.94
S      13.59       1.75       8.08
S      10.64       3.59       5.73
O      16.46       3.20       5.82
O       7.80       3.38       6.11
O      16.43       1.85       7.67
C       8.37       2.70       7.03
