20

C       2.81       2.76       3.26
C       3.88       3.40       4.11
C       4.76       4.31       3.50
C       5.90       4.87       4.11
C       6.87       5.61       3.25
C       6.52       6.15       2.00
C       8.20       5.75       3.67
C       9.12       6.36       2.83
C       7.52       6.73       1.23
H       1.82       2.93       3.70
H       2.81       3.15       2.23
H       2.96       1.67       3.23
H       4.60       4.51       2.45
H       5.50       6.13       1.61
H       8.50       5.37       4.65
N       8.80       6.83       1.62
H       7.30       7.14       0.24
H      10.17       6.47       3.13
O       6.23       4.77       5.34
O       3.92       3.02       5.33
