20

H       6.55       5.09       1.36
H       6.54       5.46      -1.11
H       2.23       5.15       1.35
C       5.61       5.19       0.81
C       4.43       5.73      -2.67
C       4.38       4.97       2.93
C       4.39       4.92       4.14
C       4.51       5.91      -3.88
C       4.43       4.99       5.59
C       4.57       6.03      -5.31
C       5.61       5.39      -0.56
C       4.40       5.51      -1.28
C       3.18       5.41      -0.56
C       3.17       5.21       0.81
C       4.39       5.11       1.52
Br       1.53       5.55      -1.48
O       5.56       5.31       6.09
O       3.35       4.76       6.21
O       5.73       5.99      -5.85
O       3.46       6.15      -5.92
