30

C       8.62      10.17       2.66
C      10.16      10.80       7.65
H      12.03      11.41       6.75
C      10.47      11.49       5.25
H      11.30      11.28       4.57
C       9.48      10.29       5.17
I       9.65      13.31       4.38
H       9.58       8.16       5.63
I      12.11       8.45       8.26
I      11.96       8.56       4.61
H      10.90      12.73       7.01
H       8.06      10.58       8.21
H       8.49      12.16       7.51
Br       7.02       9.04       6.11
O      11.19       9.54      11.80
H       7.62      11.36       5.52
O       6.96      10.04       1.02
H       9.57       8.73       7.81
O      12.21      11.56      12.04
C      11.43      10.73      11.45
C      10.19       9.06       5.79
C      10.36       9.30       7.31
C       9.06      10.09       3.79
C      10.50      11.05       9.03
O       8.60      11.61       0.88
C      10.82      11.12      10.20
C       8.04      10.62       1.43
C      10.97      11.69       6.69
C       8.65      11.08       7.43
C       8.23      10.61       6.03
