38

H      11.56       7.09       6.48
H      13.80       9.60       9.33
H       9.07       7.19       6.77
H      16.29       9.32       9.17
H      11.91       8.41      10.57
H      13.43       5.69       7.55
H       7.10       9.60      12.51
H       8.60      10.17      13.27
H       7.57      11.31      12.38
H       9.56      10.67      10.96
H       8.05      10.10      10.24
H       8.40       7.84      11.28
H       9.97       8.39      11.91
H      18.15       4.08       5.83
H      16.74       3.01       5.74
H      17.24       3.94       4.31
H      15.27       5.08       5.37
H      16.72       6.08       5.53
H      17.08       5.07       7.85
H      15.50       4.29       7.69
C      11.12       7.39       7.43
C      14.23       8.69       8.91
C       9.75       7.43       7.58
C      15.61       8.54       8.83
C       9.91       8.14       9.80
C      15.43       6.41       7.89
C      11.31       8.14       9.69
C      14.03       6.53       7.90
C      11.94       7.74       8.51
C      13.41       7.66       8.43
C       9.25       8.52      11.09
C       8.72       9.97      11.10
C       7.96      10.28      12.39
C      16.09       5.17       7.38
C      16.26       5.14       5.85
C      17.14       3.97       5.40
N       9.15       7.78       8.74
N      16.20       7.43       8.34
