22

C      13.66      10.26      12.94
H      13.61       8.00       8.83
H      13.51      10.07      10.21
H      13.31       7.07      14.66
H      15.33       5.31      13.13
N      15.37       7.45      14.75
H      13.58       4.95      13.29
O      13.98       4.32      10.26
O      13.78       5.62       8.39
O      13.65      10.05      14.20
O      13.58      11.39      12.35
C      13.89       5.44       9.65
O      16.43       7.60      14.13
O      15.23       7.58      15.97
C      14.06       6.63      11.88
C      13.90       6.66      10.49
C      13.71       7.94       9.92
C      13.65       9.10      10.69
C      13.76       9.05      12.09
C      13.97       7.79      12.64
C      14.15       7.05      13.95
C      14.32       5.74      13.08
