14

O       4.04       3.26       6.51
O       2.54       4.00       4.99
H       6.07       2.64       5.44
H       3.87       2.51       3.29
H       7.57       2.12       3.49
H       5.31       0.16       2.75
C       7.30       0.18       1.79
O       8.34       0.88       1.59
C       3.60       3.34       5.32
O       7.08      -0.97       1.23
C       5.65       2.34       4.47
C       4.36       2.65       4.25
C       6.55       1.73       3.52
C       6.27       0.69       2.72
