64

H      10.45       6.97       7.71
H      11.55       8.92      11.37
H       6.81       9.41      11.08
H       5.01       4.63       4.84
H       3.58       7.26       8.75
H       9.07       5.74       7.02
H       9.14       9.42      11.83
H       8.94       5.59       4.40
H       9.73       3.79       2.89
H       8.76       1.50       3.06
H       6.99       1.03       4.74
H       6.20       2.83       6.26
H       2.99       2.91       4.93
H       1.41       2.19       3.16
H      -0.13       3.85       2.10
H      -0.04       6.23       2.81
H       1.55       6.95       4.57
H       4.65       9.83       7.74
H       2.47      10.94       8.14
H       1.29      10.63      10.33
H       2.32       9.24      12.10
H       4.51       8.13      11.69
C      12.55       7.74       9.16
C       1.55       6.35       7.49
C       2.97       6.16       7.07
C      11.12       7.93       9.49
C       4.70       5.20       5.72
C       3.34       5.43       5.90
C       3.94       6.72       7.88
C       5.33       6.61       7.63
C       5.70       5.72       6.57
C       6.34       7.30       8.41
C       7.71       7.00       8.15
C       8.03       6.04       7.15
C       7.09       5.40       6.38
C       6.05       8.27       9.46
C       7.06       8.71      10.28
C       8.42       8.37      10.08
C       8.77       7.60       8.94
C       9.43       8.85      10.95
C      10.76       8.59      10.69
C      10.14       7.46       8.63
C       7.52       4.34       5.43
C       8.52       4.59       4.48
C       8.96       3.57       3.63
C       8.41       2.29       3.72
C       7.42       2.03       4.67
C       6.97       3.04       5.51
C       2.38       4.98       4.87
C       2.33       3.64       4.45
C       1.44       3.24       3.46
C       0.58       4.16       2.87
C       0.62       5.50       3.27
C       1.51       5.91       4.26
C       4.72       8.90       9.68
C       4.14       9.71       8.70
C       2.92      10.34       8.93
C       2.26      10.17      10.15
C       2.84       9.38      11.14
C       4.07       8.76      10.92
O      12.89       7.81       7.92
O       0.69       5.47       7.14
O      13.35       7.51      10.13
O       1.32       7.38       8.21
