24

H       5.43      10.39      28.16
H       8.39      10.57      31.06
C       6.06      11.04      28.77
H       5.17      17.26      27.99
C       5.97      12.44      28.70
C       5.07      13.12      27.83
C       7.73      11.14      30.41
C       7.72      12.54      30.42
F       4.16      15.12      26.96
F       4.26      12.40      27.03
F       9.30      15.43      32.02
C       8.56      13.33      31.26
F       9.42      12.71      32.08
C       7.51      16.79      30.28
C       7.60      15.39      30.35
C       8.50      14.70      31.22
C       5.84      16.69      28.64
C       5.86      15.29      28.63
C       5.02      14.49      27.79
C       6.81      13.21      29.54
C       6.76      14.62      29.51
H       8.13      17.44      30.90
N       6.91      10.43      29.61
N       6.65      17.39      29.45
