28

H       5.26       8.20      22.16
H       1.57      13.60      28.90
H       5.19       9.81      24.10
H       1.64      11.98      26.96
H       5.92      12.30      26.87
H       0.91       9.50      24.20
H       5.85      13.90      28.83
H       0.98       7.90      22.24
C       3.67      14.75      30.15
C       3.16       7.05      20.91
C       3.70      13.83      28.98
C       3.13       7.97      22.08
C       2.51      13.30      28.45
C       4.32       8.50      22.62
C       2.55      12.42      27.38
C       4.28       9.38      23.68
C       3.79      12.05      26.82
C       3.04       9.75      24.24
C       4.98      12.60      27.34
C       1.85       9.20      23.73
C       4.94      13.47      28.41
C       1.89       8.33      22.65
N       3.95      11.16      25.74
N       2.88      10.64      25.32
O       2.52      15.11      30.58
O       4.31       6.69      20.48
O       4.79      15.09      30.65
O       2.04       6.71      20.42
