64

H       5.18       5.66      10.06
H       4.61       4.92      -7.60
H       3.93       2.13       3.28
H       6.08       8.76      -3.33
H       9.26       5.86      -9.07
H       1.02       5.27       9.07
H       8.69       5.89      -6.63
H       1.60       5.24       6.63
H       5.59       2.07      -3.41
H       5.07       8.74       3.49
H       5.07       2.04      -0.99
H       5.19       4.91     -10.03
H       5.52       8.78       1.06
H       4.45       2.07       0.86
H       5.64       8.80      -0.89
H       5.76       5.67       7.62
C       5.77       4.20      -3.51
C       3.06       5.46       9.70
C       7.26       5.39      -9.70
C       5.19       4.18      -0.73
C       5.20       6.66       0.76
C       5.44       6.66      -0.69
C       4.86       4.19       0.69
C       5.45       5.42      -1.39
C       4.89       5.43       1.41
C       5.25       3.00      -1.48
C       5.26       7.83       1.53
C       5.54       3.00      -2.84
C       5.01       7.82       2.90
C       2.70       5.47      11.16
C       7.63       5.38     -11.15
C       4.51       3.02       1.39
C       5.66       7.84      -1.41
C       4.61       5.43       2.81
C       3.95       4.21       4.92
C       6.25       6.66      -4.93
C       4.39       6.67       5.00
C       6.07       4.16      -4.96
C       2.37       5.34       7.39
C       7.93       5.67      -7.38
C       2.05       5.35       8.74
C       5.73       5.42      -2.80
C       8.25       5.66      -8.74
C       4.40       5.57       9.30
C       5.95       5.13      -9.28
C       4.73       5.57       7.94
C       5.62       5.14      -7.93
C       3.71       5.45       7.00
C       6.62       5.41      -6.99
C       4.27       4.23       3.47
C       5.96       6.64      -3.48
C       4.21       3.04       2.75
C       5.91       7.84      -2.78
C       4.68       6.64       3.55
N       4.04       5.44       5.59
N       6.29       5.41      -5.58
O       6.44       7.71      -5.55
O       6.14       3.12      -5.60
O       4.44       7.70       5.67
O       1.46       5.57      11.43
O       8.86       5.55     -11.43
O       3.65       5.38      12.01
O       6.70       5.18     -12.00
O       3.63       3.18       5.52
