27

C      11.94       5.91      14.78
C      10.80       6.49      15.54
H      10.90       5.02      17.12
C      10.38       5.90      16.74
H       8.99       5.96      18.39
C       9.31       6.42      17.46
H       8.53       9.05      15.43
C       8.63       7.54      16.96
C       9.06       8.16      15.78
H      10.48       8.10      14.16
O      12.58       4.93      15.31
C      10.14       7.63      15.08
O      12.23       6.38      13.63
H       6.44       9.05      19.74
H       4.76       7.83      21.13
C       6.72       7.39      18.39
O       7.59       8.14      17.63
C       6.15       8.02      19.50
H       5.08       4.41      18.56
O       3.44       5.85      21.85
C       5.22       7.34      20.27
H       6.76       5.62      17.15
O       3.37       4.20      20.32
C       4.84       6.03      19.95
C       5.40       5.42      18.82
C       6.34       6.09      18.04
C       3.82       5.31      20.76
