74

C       4.37      21.83       3.38
C       5.64      21.94       2.79
C      12.74      21.81       5.62
C      11.48      21.93       5.02
C      11.40      22.15       3.63
C      12.55      22.22       2.87
C      13.82      22.08       3.47
C      13.90      21.88       4.85
C      10.29      21.48       9.90
C       9.08      21.46       9.20
C       7.87      21.33       9.91
C       7.88      21.21      11.29
C       9.10      21.22      12.00
C      10.31      21.35      11.29
N       7.88      21.61       7.10
N       9.08      21.86       5.07
N      10.27      21.69       7.12
N      10.32      21.01      14.07
N       9.14      20.80      16.12
N       7.93      21.05      14.10
O      16.20      22.06       3.04
O      14.72      22.14       1.32
O       2.00      21.87       2.94
O       3.48      21.98       1.22
H       7.83      20.63      18.06
H       5.40      21.13      14.56
H       3.34      21.06      15.99
H       5.78      20.58      19.49
H      14.93      20.93      15.93
O       2.06      20.86      18.26
O       3.52      20.59      19.97
H      12.86      21.08      14.52
H       7.77      22.00       3.13
H       5.34      21.55       6.64
H       3.27      21.60       5.21
H       5.71      22.05       1.71
H      12.79      21.64       6.70
H      10.42      22.26       3.17
H      12.50      22.38       1.79
H      14.89      21.78       5.31
H      11.22      21.58       9.34
H       6.94      21.32       9.35
H       6.96      21.11      11.86
H      11.24      21.36      11.84
C       9.07      21.59       7.73
C       7.94      21.75       5.77
C      10.22      21.83       5.78
C       9.12      21.09      13.47
C      10.27      20.86      15.41
C       7.99      20.92      15.43
C      15.01      22.10       2.56
C       3.18      21.89       2.47
C      15.03      20.57      18.68
C       3.25      20.77      18.74
O      16.21      20.58      18.19
O      14.74      20.57      19.92
C       5.41      21.66       5.56
H      12.52      20.25      19.41
C       6.84      20.73      17.62
C       6.74      20.89      16.23
H      10.45      20.37      18.00
C       5.47      21.01      15.64
C       4.33      20.98      16.44
C       4.43      20.83      17.83
C       5.71      20.70      18.41
C      13.84      20.58      17.76
C      12.58      20.42      18.34
C      11.44      20.49      17.56
C      11.53      20.74      16.18
C      12.80      20.89      15.59
C      13.95      20.81      16.38
C       6.78      21.92       3.58
C       6.68      21.77       4.97
C       4.26      21.69       4.77
