9

C       0.72       5.85       8.55
H      -1.72       6.97      11.26
N       0.61       7.89       9.27
H      -1.03       8.50      11.14
N      -0.38       5.89       9.34
N      -1.36       7.69      10.62
N       1.34       7.02       8.48
C      -0.40       7.18       9.79
H       1.08       4.95       8.04
