14

C      -3.92       3.24      13.53
O      -8.04       2.87      11.09
H      -5.04       6.29      12.49
C      -3.95       4.61      13.33
O      -7.12       0.95      11.68
H      -6.87       4.84      11.60
C      -5.01       5.21      12.64
C      -7.10       2.23      11.69
O      -4.84       1.10      13.28
C      -6.03       4.41      12.15
C      -6.02       3.01      12.33
C      -4.95       2.38      13.05
H      -3.13       5.22      13.72
H      -3.10       2.76      14.07
