26

O      -6.89      -2.62      13.87
O      -1.20      -6.59      15.64
O      -2.24      -7.69      13.95
H      -6.07      -4.87      15.97
H      -4.91      -3.81      16.79
H      -3.36      -5.57      16.83
H      -4.53      -6.61      16.00
H      -1.75      -4.15      15.51
H      -1.75      -4.19      13.75
H      -3.31      -2.39      15.45
H      -3.31      -2.47      13.69
H      -6.10      -4.96      13.42
H      -4.98      -3.98      12.49
H      -3.41      -5.71      12.54
H      -4.53      -6.70      13.45
C      -5.91      -2.53      14.66
C      -2.11      -6.71      14.76
C      -5.04      -4.48      15.92
C      -4.01      -5.64      15.95
C      -3.13      -5.59      14.68
C      -2.41      -4.22      14.64
C      -3.44      -3.07      14.60
C      -4.87      -3.65      14.63
C      -5.07      -4.57      13.41
C      -4.03      -5.72      13.44
O      -5.71      -1.59      15.51
