52

C      11.22      19.48       5.03
C       6.45      17.77       4.78
C       6.23      18.05       7.68
C      11.16      19.15       7.93
C      10.87      18.05      11.93
C       5.95      19.16      11.58
C       5.83      19.47      14.48
C      10.59      17.77      14.82
O       7.00      18.35      16.62
O       9.20      18.97      16.70
H      11.03      19.94      11.53
H      11.50      19.46      14.63
O       9.99      18.36       2.91
O       7.80      19.00       2.87
H      12.09      17.77       5.28
H       5.56      19.47       4.93
O      12.32      18.68       5.01
H      11.21      17.26       8.40
H       6.02      19.95       7.98
O      11.25      20.61       4.58
O       5.35      18.55       4.67
H       5.87      17.27      11.13
O      11.74      18.07       8.53
H       4.95      17.78      14.15
O       6.48      16.64       4.34
O      11.62      20.26       8.04
O       5.52      19.12       8.11
O       5.83      16.92       7.84
O       5.35      18.09      10.99
O       5.51      20.28      11.45
O       4.72      18.68      14.45
O       5.80      20.59      14.94
O      11.55      19.12      11.44
O      11.31      16.92      11.84
C       8.13      18.65      16.10
O      11.69      18.55      14.93
O      10.56      16.65      15.28
C       8.89      18.67       3.44
C       8.83      18.64       4.95
C       9.98      18.93       5.70
C       9.93      18.85       7.10
C       8.70      18.60       7.75
C       7.54      18.36       6.98
C       7.62      18.32       5.58
C       8.61      18.60       9.17
C       8.51      18.60      10.39
C       8.41      18.60      11.80
C       9.55      18.35      12.60
C       9.44      18.30      13.99
C       8.21      18.62      14.60
C       7.08      18.92      13.82
C       7.16      18.85      12.43
