16

O       8.68       4.20      14.76
C       7.23       4.18      17.24
O       7.98       5.42      19.72
H       8.18       4.72      17.24
C       5.52       2.94      16.05
H       3.86       2.23      17.24
C       7.47       3.74      14.75
C       5.31       3.31      18.42
H       5.14       2.55      15.11
C       6.98       4.60      19.73
O       6.90       3.36      13.69
H       4.78       3.17      19.37
O       6.36       4.30      20.79
C       4.80       2.77      17.24
C       6.74       3.63      16.05
C       6.51       4.02      18.43
