16

C      15.77       7.88      12.56
O      19.42       7.28      10.63
C      18.45       7.62       9.89
O      13.21       8.33      13.66
C      13.27       8.17      12.42
C      14.62       8.10      11.77
C      14.74       8.22      10.38
H      13.84       8.38       9.78
C      15.99       8.10       9.78
H      16.09       8.17       8.70
O      12.25       8.05      11.65
H      17.91       7.53      12.53
C      17.13       7.85      10.55
O      18.52       7.76       8.62
H      15.65       7.81      13.64
C      17.01       7.74      11.95
