26

O       6.19       7.33      11.93
O       7.46       8.38      10.37
C       5.79       6.07       7.33
C       4.68       5.24       7.59
C       4.20       5.19       8.92
C       4.80       5.93       9.93
C       5.89       6.76       9.65
C       6.38       6.83       8.33
C       4.06       4.45       6.52
C       4.19       4.84       5.17
C       3.63       4.08       4.14
C       2.89       2.92       4.44
C       2.73       2.54       5.78
C       3.32       3.28       6.80
H       3.33       4.58       9.15
H       4.44       5.86      10.95
H       7.24       7.47       8.12
H       6.22       6.10       6.33
H       4.72       5.75       4.91
H       3.76       4.37       3.10
H       2.16       1.64       6.00
H       3.22       2.94       7.83
O       2.53       2.46       2.14
O       1.45       1.20       3.70
C       2.26       2.13       3.35
C       6.55       7.55      10.73
