28

H       7.44      12.58       3.25
H       5.88      10.68       2.95
C       5.78       8.35       4.13
C      11.28       8.96       8.11
H      11.22       8.06       8.72
Cl       9.61      13.00       4.84
Cl       9.20       6.70       8.13
H      11.36       9.83       8.78
H       6.26       7.41       3.80
H       5.15       8.12       4.99
H       5.12       8.68       3.32
O       6.07       7.28       7.10
O      11.03      12.06       7.47
H      12.21       8.92       7.52
O       7.24       6.03       5.58
O      12.00      11.06       5.66
C      11.06      11.23       6.51
C       8.62      11.58       4.72
C       7.57      11.67       3.83
C       6.69      10.59       3.68
C       6.80       9.43       4.41
C       7.87       9.32       5.37
C       8.83      10.40       5.51
C       9.93      10.23       6.41
C      10.09       9.10       7.20
C       9.10       8.09       7.10
C       8.04       8.18       6.21
C       7.03       7.07       6.29
