20

H      13.05       5.42      11.81
H      14.82       5.17      10.19
H      15.24       6.38       9.10
H      12.58      10.10      10.24
H       9.67       8.68      11.83
H      10.34      10.06      11.14
C      10.84       6.59      12.76
C      11.84       7.19      11.83
C      12.94       6.44      11.43
C      13.87       6.94      10.51
C      13.74       8.29      10.13
C      12.65       9.06      10.56
C      11.63       8.50      11.35
C      14.78       8.94       9.28
N      14.95       6.17      10.06
N      10.51       9.25      11.73
O      11.24       6.24      13.92
O       9.64       6.49      12.33
O      14.90       8.50       8.08
O      15.47       9.87       9.81
