23

H      11.45       0.12      10.82
O      13.73      -4.85       9.18
H      11.98      -3.92      14.30
O      15.03      -2.98       9.17
H      11.96      -5.66      11.77
H      10.53      -4.48      13.42
O      13.79      -6.26      13.65
O      14.85      -4.65      12.45
H      15.62      -5.09      12.87
C      12.45      -3.52      11.47
C      13.00      -2.91      10.35
C      12.62      -1.55      10.16
C      11.73      -0.91      11.02
C      11.25      -1.54      12.18
C      11.64      -2.86      12.38
C      11.53      -4.05      13.31
C      12.46      -4.81      12.26
C      13.99      -3.62       9.50
C      10.45      -0.81      13.20
C      13.74      -5.34      12.86
Cl      13.22      -0.62       8.82
O      10.74      -1.05      14.41
O       9.53      -0.00      12.80
