30

C       3.82       9.93      10.31
C       1.51       9.76       9.37
C       2.37       9.84      10.42
C       6.64       9.94      10.14
H      -2.62       9.85      11.56
H       6.36      10.64       8.13
H       6.61       9.29      12.20
H       1.98       9.77      11.44
H      -0.13       9.36       7.31
H       3.89      10.63       8.26
H       1.92       9.76       8.36
H      -0.15       9.96      11.59
H       4.12       9.33      12.37
Cl      -2.82       9.13       6.72
O       8.65      10.41       8.99
O      -4.91       8.69       8.77
O       8.74       9.27      10.97
O      -4.77      10.22      10.45
C       8.12       9.87      10.03
C      -2.78       9.49       9.45
C      -2.05       9.72      10.64
C      -0.67       9.78      10.65
C       0.06       9.66       9.45
C      -0.66       9.44       8.26
C      -4.27       9.46       9.55
C      -2.05       9.35       8.25
C       4.47      10.32       9.12
C       5.86      10.33       9.04
C       6.00       9.58      11.34
C       4.61       9.60      11.43
