34

H       5.47      12.67       7.71
H       5.38      15.18       7.68
H       9.17      15.29       9.69
H       4.64      18.88       7.12
H       8.42      18.97       9.15
H       8.34      21.47       9.14
H      10.25      12.06       9.25
H       9.30      11.93      10.72
H      10.26      13.41      10.42
H       3.63      20.79       6.31
H       4.51      22.35       6.23
H       3.50      21.99       7.62
C       6.45      23.07       8.28
C       7.38      11.09       8.55
C       7.39      12.58       8.67
C       6.28      13.26       8.13
C       6.22      14.64       8.11
C       7.29      15.37       8.67
C       8.37      14.69       9.25
C       8.46      13.29       9.26
C       5.44      19.47       7.58
C       6.51      18.79       8.16
C       7.58      19.51       8.72
C       7.53      20.89       8.71
C       6.43      21.58       8.17
C       5.36      20.87       7.57
C       9.63      12.64       9.94
C       4.19      21.53       6.90
N       7.37      16.78       8.71
N       6.43      17.38       8.11
O       5.32      23.66       8.38
O       6.24      10.51       8.51
O       8.50      10.50       8.46
O       7.59      23.64       8.32
