16

F       8.95       0.16       5.65
C       7.16       0.71       2.52
C       6.33      -1.32       3.59
O       5.19      -3.13       2.59
F       7.05       1.58       1.50
C       7.24      -1.09       4.63
C       6.31      -0.40       2.53
O       9.09       2.76       4.67
F       5.43      -0.54       1.52
C       8.06       0.94       3.57
C       8.09       0.02       4.63
O       4.81      -2.64       4.78
C       8.97       2.14       3.56
O       9.51       2.42       2.45
F       7.34      -1.96       5.66
C       5.36      -2.47       3.65
