24

C       3.92       9.96       9.05
C      -1.21       8.68      10.24
C       3.25       9.12       9.96
C      -0.54       9.53       9.33
H       5.86      10.63       8.35
H      -3.15       8.02      10.94
C       4.05       8.34      10.82
H       6.09       7.82      11.38
H       3.59       7.67      11.55
C       5.43       8.42      10.74
C       1.80       9.02      10.06
C       0.91       9.62       9.24
C      -1.34      10.31       8.48
H      -0.88      10.97       7.75
C      -2.73      10.23       8.56
H      -3.38      10.82       7.92
H       1.27      10.25       8.42
H       1.43       8.40      10.88
H      -0.66       8.04      10.93
H       3.37      10.61       8.37
N       6.05       9.23       9.86
N      -3.34       9.42       9.44
C       5.31       9.99       9.04
C      -2.60       8.66      10.26
