36

H       3.65       9.13       8.19
H      -3.32       6.31      10.97
H       3.55       5.95      10.82
H      -3.23       9.44       8.30
H       2.74       3.36      12.01
H      -2.56      10.88       5.83
H       2.89      11.83       6.90
H      -2.51       4.91      13.59
C       3.01       8.45       8.76
C      -2.68       6.96      10.39
C       2.95       6.66      10.26
C      -2.63       8.72       8.85
C       1.55       6.65      10.30
C      -1.23       8.68       8.73
C       1.61       8.54       8.72
C      -1.28       6.85      10.40
C       0.87       7.63       9.52
C      -0.54       7.72       9.54
C       0.78       5.75      11.14
C      -0.46       9.55       7.88
C       0.92       9.50       7.90
C      -0.59       5.88      11.20
C       1.41       4.70      12.00
C      -1.08      10.56       6.96
C       1.75      10.33       6.95
C      -1.43       4.94      12.04
N       3.64       7.55       9.52
N      -3.31       7.87       9.63
O       1.03       4.46      13.14
O       2.42       4.05      11.38
O      -0.55      11.63       6.69
O      -2.25      10.16       6.42
O       1.91      10.05       5.78
O       2.38      11.35       7.59
O      -1.65       3.78      11.74
O      -1.98       5.57      13.10
