22

C       2.98       6.84      14.78
C       2.83       6.16      13.59
O       4.49       2.01      17.35
O       2.22       1.90      17.43
C       3.34       2.52      17.34
O       2.26       9.02      17.45
C       3.37       8.39      17.33
O       4.52       8.89      17.31
F       3.58       6.80      19.60
F       3.56       4.11      19.60
F       2.98       8.19      14.74
F       2.70       6.82      12.43
F       2.70       4.09      12.42
F       2.97       2.72      14.73
C       3.27       4.03      17.25
C       3.12       4.73      16.02
C       3.41       4.75      18.41
C       2.97       4.07      14.78
C       2.83       4.75      13.59
C       3.28       6.88      17.25
C       3.42       6.16      18.41
C       3.12       6.17      16.02
