36

H      -0.04       6.98       0.22
H       6.07       3.46      -8.44
C       3.11       4.89      -0.70
C       2.68       5.14      -7.52
H       4.00       4.33      -0.98
H       1.75       5.63      -7.24
C       5.09       8.46      -3.37
C       4.78       8.64      -4.85
H       5.99       7.84      -3.23
H       3.80       9.11      -4.99
C       1.02       5.11       0.46
C       3.92       3.44      -8.68
H       5.29       9.45      -2.95
H       5.54       9.31      -5.27
C       2.16       4.34       0.13
C       2.68       4.04      -8.35
H       0.28       4.70       1.15
H       3.93       2.59      -9.37
C       4.00       6.69      -2.06
C       3.79       6.81      -6.16
H       2.28       3.34       0.53
H       1.75       3.65      -8.75
N       3.99       7.88      -2.61
N       4.83       7.40      -5.61
H       4.88       6.07      -2.24
H       2.81       7.26      -5.98
H       3.15       8.45      -2.42
H       5.74       6.95      -5.80
C       2.96       6.19      -1.24
C       3.88       5.66      -6.98
O       1.60       8.16      -1.44
O       6.27       5.47      -6.78
C       1.78       6.97      -0.92
C       5.14       5.03      -7.30
C       0.84       6.39      -0.03
C       5.12       3.92      -8.19
