18

C       5.06       2.66       4.15
O       3.23      -0.93       6.42
O       5.52      -0.88       6.49
C       3.66       2.75       4.00
O       5.48       6.36       1.77
O       3.19       6.25       1.61
H       2.23       4.14       2.99
S       2.84       1.45       4.78
S       5.87       3.95       3.35
C       4.37      -0.41       6.12
C       4.33       5.83       2.01
C       4.34       4.61       2.83
C       5.48       1.53       4.90
C       3.25       3.87       3.24
C       4.37       0.78       5.31
H       6.93       0.43       5.79
H       7.49       1.91       5.07
N       6.78       1.19       5.14
