50

N       1.58      -6.98      20.42
N      -3.84     -14.32      16.45
H      -0.21      -3.94      21.74
N      -3.20     -15.30      15.96
H       2.25      -8.46      18.40
O      -1.67     -19.50      13.98
H       0.92     -10.28      17.37
O      -3.30     -20.25      12.65
H      -2.13      -9.72      20.39
O      -5.73     -19.12      12.79
H      -0.83      -7.84      21.33
O      -0.69      -1.68      22.47
H       0.19     -12.24      17.27
O       0.94      -0.75      23.68
H      -1.13     -14.05      16.26
O       3.38      -1.87      23.69
H      -4.72     -12.42      17.97
H      -3.41     -10.57      18.98
H      -5.91     -15.36      15.32
H      -6.95     -17.13      13.89
H      -2.14     -17.38      15.04
H       3.61      -5.89      21.59
H       4.63      -3.96      22.82
C       0.50      -1.71      22.94
C       1.40      -2.84      22.65
C       0.85      -3.95      21.99
C       1.62      -5.04      21.61
C       0.79      -8.03      19.91
C       1.29      -8.75      18.82
C       0.54      -9.78      18.26
C      -0.71     -10.15      18.79
C      -1.18      -9.43      19.92
C      -0.46      -8.39      20.46
C      -1.50     -11.25      18.21
C      -0.88     -12.26      17.43
C      -1.62     -13.28      16.86
C      -3.01     -13.35      17.05
C      -3.64     -12.36      17.82
C      -2.89     -11.34      18.40
C      -3.94     -16.25      15.25
C      -5.32     -16.19      14.94
C      -5.89     -17.17      14.15
C      -5.14     -18.25      13.61
C      -3.75     -18.32      13.97
C      -3.19     -17.33      14.78
C      -2.85     -19.41      13.53
C       3.00      -5.03      21.89
C       3.56      -3.97      22.57
C       2.79      -2.85      22.99
N       0.90      -6.08      21.01
