13

O      14.71       6.02       3.98
H      14.88       4.60       5.49
H      14.54       4.60       2.46
O      17.14       5.58       6.49
O      12.28       5.58       1.47
C      16.32       6.16       5.73
H      16.19       4.59       4.26
H      13.23       4.59       3.69
O      16.10       7.42       5.63
C      13.10       6.16       2.23
O      13.32       7.42       2.33
C      15.51       5.23       4.85
C      13.91       5.23       3.11
