34

N       0.90       7.45       4.49
H      -0.04      12.31      -2.12
N       0.42      13.02      -1.54
N      -0.42      11.40       1.54
H       0.04      12.11       2.12
H      -2.65      16.33      -3.58
O       0.88      13.61       0.64
O      -0.88      10.81      -0.64
H       2.65       8.09       3.58
H      -1.54      14.62      -2.16
H       1.54       9.80       2.16
H       2.20      15.76      -4.02
H      -2.20       8.66       4.02
H       0.94      17.45      -5.34
H      -0.94       6.97       5.34
H       1.97      13.59      -2.81
H      -1.97      10.83       2.81
H       1.77      14.56      -1.34
H      -1.77       9.86       1.34
C      -1.57      16.19      -3.62
C       1.57       8.23       3.62
C      -0.94      15.23      -2.84
C       0.94       9.19       2.84
C       0.44      15.06      -2.95
C      -0.44       9.36       2.95
C       1.13      15.88      -3.86
C      -1.13       8.54       3.86
C       0.44      16.81      -4.60
C      -0.44       7.61       4.60
C       1.21      14.05      -2.15
C      -1.21      10.37       2.15
C       0.38      12.85      -0.20
C      -0.38      11.57       0.20
N      -0.90      16.97      -4.49
