16

C       6.91       9.86       6.92
C       6.61       9.25       5.70
C       6.02       7.98       5.69
H       5.81       7.47       4.75
C       4.89       6.11       6.97
C       5.64       7.38       6.90
O       5.10       5.18       6.10
O       4.07       6.00       7.94
H       5.60       7.56       9.05
H       6.86       9.75       4.77
O       8.48      11.28       7.92
O       7.28      12.12       6.19
H       6.85       9.73       9.07
C       5.92       8.03       8.12
C       7.61      11.18       7.01
C       6.58       9.24       8.13
