50

C       2.47       6.83      13.45
C       3.52       9.34      14.08
C       2.66       7.78      12.45
C       3.32       8.39      15.08
C       3.18       9.06      12.75
C       2.80       7.11      14.79
C      -0.36       4.24      14.96
C      -1.21       4.53      13.74
C       6.35      11.94      12.53
C       7.22      11.67      13.74
H       4.57       6.70      16.72
H       1.43       9.43      10.79
Br       5.24       5.08      18.97
Br       0.76      10.99       8.51
H       5.17      12.63      10.41
H       0.78       3.56      17.12
H       2.07       5.85      13.19
H       3.91      10.31      14.35
O       1.41       2.77      19.39
O       4.54      13.48       8.21
H       2.42       7.53      11.42
H       3.57       8.64      16.11
O       3.67       2.53      19.31
O       2.27      13.55       8.15
H      -0.97       4.26      15.88
H       0.13       3.26      14.89
H      -0.60       4.50      12.83
H      -2.01       3.78      13.66
O       0.64       5.27      15.03
H      -1.67       5.52      13.81
O       5.32      10.93      12.51
H       5.87      12.93      12.59
H       6.94      11.89      11.60
H       7.66      10.66      13.68
H       8.03      12.40      13.79
H       6.63      11.73      14.66
C       2.57       3.08      18.97
C       3.37      13.08       8.56
C       3.72       5.07      17.82
C       2.26      11.07       9.69
C       3.72       6.02      16.81
C       2.26      10.12      10.71
C       2.70       6.10      15.85
C       3.28      10.07      11.68
C       1.63       5.17      15.96
C       4.34      11.01      11.57
C       1.61       4.24      17.00
C       4.34      11.93      10.53
C       2.66       4.16      17.94
C       3.31      12.00       9.58
