16

C      11.65      14.77       1.73
C      12.71      14.14       2.60
C      13.79      13.52       2.09
H      13.97      13.43       1.02
H      13.30      13.69       6.02
C      14.79      12.89       2.97
C      14.56      12.98       4.44
C      13.48      13.61       4.95
C      12.48      14.23       4.07
C      15.61      12.33       5.31
O      10.69      14.00       1.41
O      11.82      15.98       1.42
O      15.78      12.30       2.52
O      11.49      14.81       4.53
O      16.58      13.08       5.64
O      15.41      11.11       5.60
