48

C      11.49       3.67      13.41
C      12.07       3.09      12.22
C      13.24       3.70      11.62
C      13.83       4.88      12.20
C      13.24       5.46      13.39
C      12.08       4.86      14.00
C      10.40       3.32      14.18
C      11.32       5.19      15.11
C      14.00       6.57      13.72
C      14.91       5.65      11.85
H      17.33      10.82      10.97
H      19.13       9.09      14.51
C      13.58       2.94      10.51
C      11.73       1.99      11.46
C       8.51       4.23      17.05
H      14.43      -2.23       8.05
C       9.36       4.24      16.18
H      10.90      -0.45       6.27
C      16.81       8.51      12.75
C      15.96       7.64      12.77
H       6.16       5.96      17.61
H       8.00       2.47      19.40
C      12.66       0.10       8.60
C      12.66       0.95       9.46
N      19.58      10.77      13.30
N      19.01      11.32      12.17
N      13.22      -2.70       6.36
N      12.10      -2.13       5.80
N       6.30       3.65      19.87
N       5.72       4.76      19.30
H       9.68       2.52      14.11
H      11.40       5.99      15.83
H      13.92       7.29      14.52
H      15.63       5.58      11.04
H      14.37       3.03       9.77
H      10.94       1.25      11.54
C      17.94      10.58      11.83
C      17.80       9.51      12.74
C      18.86       9.69      13.65
N      10.30       4.25      15.22
N      15.02       6.68      12.78
N      12.65       1.90      10.41
C      12.66      -0.90       7.60
C      11.76      -1.05       6.53
C      13.57      -1.97       7.44
C       7.52       4.22      18.06
C       6.44       5.10      18.22
C       7.38       3.32      19.13
