32

O       5.67       7.94       7.89
O       6.55       5.88       8.29
O      17.22      11.57       1.26
O      18.09       9.50       1.66
H      16.64       8.00       2.91
H      14.97      11.91       2.14
H       8.79       5.53       7.41
H       7.13       9.45       6.64
O      12.71      11.47       3.34
O      14.58       7.08       4.19
O       9.19      10.36       5.36
O      11.06       5.98       6.21
H      11.97      11.06       3.83
H      13.71       6.99       4.62
H      10.06      10.46       4.93
H      11.80       6.39       5.72
C       6.59       7.06       7.81
C      17.17      10.39       1.74
C      15.92       9.99       2.46
C      15.82       8.71       3.00
C      14.66       8.34       3.67
C      13.58       9.26       3.80
C      13.71      10.55       3.24
C      14.88      10.92       2.57
C      12.40       8.89       4.48
C      11.37       8.56       5.07
C      10.19       8.19       5.75
C      10.05       6.89       6.31
C       8.89       6.53       6.98
C       7.85       7.46       7.09
C       7.95       8.74       6.55
C       9.11       9.11       5.88
