39

C       7.68       8.39      21.68
C       7.20       9.62      22.12
C       7.47      10.04      23.43
C       8.14       9.18      24.30
C       8.64       7.95      23.85
C       6.44      10.45      21.12
C       7.19      11.44      23.82
C      10.39       5.88      22.59
C       8.06       5.21      21.85
F      11.08       4.97      21.86
F      10.13       5.33      23.80
F      11.25       6.93      22.81
F       7.55       5.01      23.10
F       8.57       4.02      21.44
F       7.01       5.51      21.04
H      10.43       8.61      21.18
H       8.76       5.08      19.31
H       9.49       5.94      17.12
H       7.49       8.10      20.65
H       8.34       9.51      25.32
H       9.21       7.33      24.54
O      11.05       7.35      15.66
O      10.62       9.48      16.25
O      12.62       9.66      18.61
O      10.88      10.81      19.48
O       7.05      10.63      19.99
O       5.28      10.84      21.39
O       7.32      12.34      22.91
O       6.81      11.76      24.99
C      10.72       8.21      16.52
C      10.37       7.73      17.89
C      10.63       8.48      19.06
C      10.23       8.00      20.30
C       9.55       6.77      20.42
C       9.29       6.03      19.27
C       9.71       6.51      18.02
C      11.43       9.74      19.04
C       9.11       6.36      21.84
C       8.45       7.58      22.51
