14

Br       4.14       7.56       7.86
C       5.49       9.58      10.02
C      -0.57       8.77       9.04
Br       1.37      10.21       7.50
Br       3.07      10.47      11.30
C       4.00       9.42      10.03
C       0.90       8.88       8.77
C       3.31       8.55       9.26
C       1.89       8.25       9.42
O       6.14       8.50      10.07
O      -1.22       9.85       8.99
O       6.00      10.75       9.98
O      -1.05       7.62       9.32
Br       1.60       6.88      10.71
