13

H      18.69       9.12       4.35
O      16.71       9.65       4.01
H      17.87      10.46       2.48
H      17.99      10.25       5.55
O      14.81      10.14       2.34
O      16.19       7.76       5.69
C      17.01      10.71       3.12
C      17.78       9.37       4.91
O      15.90      11.94       1.46
O      18.29       7.80       6.56
C      15.80      10.95       2.23
C      17.38       8.21       5.79
H      17.24      11.63       3.68
