42

C      -5.95      -5.54      15.66
C      -8.76      -5.56      15.68
C     -12.98      -5.53      15.67
C     -10.18      -5.56      15.68
C     -10.87      -3.37      18.82
C      -8.05      -3.38      18.81
C     -10.89      -7.78      12.57
C      -8.06      -7.78      12.57
H      -6.04      -4.32      17.40
H      -6.05      -6.76      13.93
O      -3.87      -6.19      14.73
H     -12.89      -6.76      13.94
O     -15.06      -4.87      16.59
H     -12.89      -4.31      17.40
H     -10.59      -3.75      19.81
H     -11.96      -3.43      18.74
H     -10.60      -2.31      18.80
H      -8.31      -2.31      18.79
O      -3.87      -4.88      16.59
H      -6.96      -3.44      18.74
H      -8.33      -3.75      19.81
H     -10.62      -7.40      11.57
H     -11.98      -7.73      12.66
H      -8.34      -8.84      12.59
H      -6.97      -7.73      12.65
H      -8.33      -7.41      11.57
H     -10.61      -8.84      12.59
C     -14.47      -5.53      15.66
C      -4.46      -5.53      15.66
O     -15.07      -6.18      14.74
C      -6.64      -4.85      16.66
C      -8.04      -4.84      16.70
C      -8.77      -4.13      17.73
C      -6.64      -6.25      14.68
C      -8.05      -6.28      14.66
C      -8.78      -7.01      13.65
C     -12.30      -6.24      14.68
C     -10.89      -6.28      14.66
C     -10.16      -7.01      13.65
C     -12.29      -4.85      16.66
C     -10.89      -4.84      16.70
C     -10.15      -4.13      17.73
