10

C       9.20       4.73      13.68
F       8.54       3.93      12.87
C      10.61       4.73      13.69
C       9.20       6.34      15.30
F      11.27       3.92      12.88
C      10.60       6.34      15.30
F       8.54       7.15      16.12
F      11.27       7.15      16.12
N       8.52       5.54      14.49
N      11.29       5.54      14.50
