19

H      13.80      11.36      27.73
C      18.75       8.64      29.61
S      16.52       9.99      26.44
S      15.80      10.15      30.55
H      18.90       7.57      29.43
H      18.40       8.78      30.64
H      19.73       9.12      29.50
C      18.94       8.69      26.42
O      19.91       8.11      27.04
O      18.83       8.83      25.15
C      13.35      11.44      30.55
O      13.43      11.28      31.82
O      12.40      12.03      29.92
C      17.76       9.21      28.64
C      14.56      10.93      28.37
C      17.86       9.23      27.25
C      14.45      10.91      29.75
C      15.76      10.31      27.95
C      16.55       9.84      29.02
