38

O       4.79       6.84      19.22
O       1.87      -4.15       8.09
H       5.05      -2.31       9.26
H       1.61       5.01      18.04
H       5.23      -0.51      10.97
H       1.43       3.20      16.34
O       0.68      -3.05      10.22
H       1.10      -1.17      12.00
H       5.56       3.86      15.30
O       5.98       5.74      17.08
H       1.26       1.10      12.31
H       5.40       1.60      14.99
H       1.39       2.84      14.04
H       5.27      -0.15      13.26
H       0.03      -2.72      10.87
H       6.63       5.41      16.44
C       3.68       6.46      18.75
C       2.98      -3.77       8.55
C       4.19      -2.05       9.88
C       2.47       4.74      17.43
C       4.30      -1.06      10.84
C       2.36       3.75      16.46
C       3.17      -0.71      11.62
C       3.49       3.41      15.68
C       1.97      -1.39      11.39
C       4.69       4.09      15.92
C       1.86      -2.39      10.41
C       4.80       5.08      16.90
C       2.99      -2.73       9.63
C       3.67       5.43      17.68
C       2.16       1.19      12.92
C       4.50       1.51      14.39
C       2.24       2.17      13.89
C       4.42       0.52      13.41
C       3.41       2.36      14.65
C       3.25       0.34      12.65
O       2.53       6.87      19.14
O       4.13      -4.18       8.16
