9

C       5.23      14.73       7.93
C       3.93      15.10       7.19
O       6.34      14.69       7.04
O       4.00      15.17       5.90
C       5.15      13.28       8.45
O       2.91      15.27       7.89
O       4.31      12.48       8.08
H       5.41      15.44       8.75
H       5.99      12.99       9.11
