14

O      10.88       2.73       0.83
C      15.01       5.75      -0.07
H      13.82       3.29      -0.59
C      12.97       3.54       0.05
H      12.05       4.85       1.39
H      13.88       6.49       1.53
C      16.05       6.80      -0.01
O      17.02       6.65      -0.84
C      11.88       2.55       0.05
O      12.04       1.57      -0.76
H      15.15       5.02      -0.87
C      13.96       5.70       0.78
O      15.91       7.74       0.84
C      12.93       4.68       0.77
