12

C       6.55      15.83       7.45
C       6.45      10.63      15.11
C       6.41      11.49      13.95
C       6.56      15.00       8.64
C       6.43      12.18      12.93
C       6.53      14.33       9.66
C       6.46      12.93      11.82
C       6.50      13.60      10.79
O       7.68      16.22       7.03
O       5.32      10.32      15.62
O       5.40      16.08       6.97
O       7.61      10.29      15.49
