23

C       7.63       2.33      12.70
H       6.68       3.81      14.46
H       1.87       5.06      12.50
H       1.42       3.63      13.47
H       1.89       2.12      11.57
H       2.30       3.52      10.53
O       4.09       1.46       9.90
O       6.31       1.18      10.02
O       5.57       5.44      15.73
O       3.31       5.54      15.53
H       7.47       1.56      10.92
O       8.17       1.75      11.63
O       8.32       2.54      13.70
C       5.20       1.66      10.48
C       4.47       5.11      15.17
C       4.60       4.17      14.03
C       5.13       2.48      11.73
C       3.60       3.84      13.12
C       6.17       2.78      12.68
C       3.87       3.01      12.03
C       5.87       3.60      13.77
C       2.15       4.03      12.76
C       2.44       3.08      11.53
