54

H       1.97      14.88      22.26
H       1.99      18.62      20.13
H       2.03      14.90      17.96
O       2.86      20.63      13.61
O       0.93      19.55      13.14
H       3.01      12.92      21.91
H       0.86      16.06      23.71
H       3.22      20.41      24.11
H       3.20      19.24      21.94
H       3.08      19.32      18.42
H       0.89      17.45      14.40
H       0.92      16.12      16.49
H       0.69      13.15      18.26
O       2.69       8.32      19.48
O       0.74       8.37      20.64
O       3.13      19.52      27.18
O       0.65       9.39      17.66
O      -0.27      11.33      17.16
O       1.12      17.39      27.26
O       0.04      16.05      25.89
O       4.19      21.26      15.85
O       2.58      21.70      17.28
O       1.17      20.51      26.59
H       2.86      10.47      21.82
C       1.93      19.82      13.88
C       1.70       8.90      20.00
C       2.12      19.68      26.43
C       2.02      16.83      21.34
C       1.98      15.43      21.32
C       1.95      14.73      20.11
C       1.99      15.45      18.90
C       2.02      16.85      18.90
C       2.02      17.53      20.12
C       2.38      11.06      21.04
C       2.46      12.45      21.09
C       1.87      13.25      20.09
C       1.20      12.60      19.05
C       1.14      11.21      19.00
C       1.73      10.41      19.99
C       1.41      17.01      23.76
C       1.45      17.66      24.98
C       2.09      18.90      25.14
C       2.70      19.46      24.01
C       2.68      18.80      22.78
C       2.03      17.56      22.63
C       2.61      18.87      17.55
C       2.61      19.59      16.36
C       2.01      19.09      15.19
C       1.41      17.83      15.28
C       1.42      17.09      16.46
C       2.03      17.60      17.62
N       0.45      10.60      17.86
N       0.82      16.99      26.13
N       3.17      20.96      16.48
