14

O      -2.49      11.04       3.06
C      -6.59      13.84       2.68
H      -5.50      13.96       0.80
O      -3.42      10.59       5.02
C      -5.53      13.55       1.80
H      -3.67      12.46       1.61
C      -3.44      11.23       3.91
O      -5.70      12.05       5.69
C      -4.51      12.73       2.26
C      -4.51      12.18       3.56
H      -7.44      13.56       4.64
C      -6.62      13.33       3.96
C      -5.58      12.49       4.46
H      -7.41      14.48       2.34
