28

C       1.99      26.31      23.46
C       1.99      15.90      17.16
F       1.96      18.39      15.77
F       2.00      16.18      19.98
F       1.99      18.51      21.25
F       1.98      21.45      23.60
F       1.98      20.77      17.02
F       1.99      23.70      19.37
F       2.00      26.04      20.64
F       1.96      23.82      24.85
C       1.98      17.23      17.85
C       2.01      17.31      19.25
C       2.00      18.53      19.91
C       1.99      19.75      19.18
C       1.97      19.65      17.77
C       1.96      18.42      17.12
C       1.97      22.56      22.85
C       1.99      22.46      21.44
C       2.00      23.68      20.71
C       2.01      24.90      21.37
C       1.98      24.98      22.77
C       1.96      23.79      23.50
N       1.99      21.06      19.67
N       1.99      21.16      20.95
O       1.06      26.54      24.28
O       2.94      27.11      23.16
O       1.06      15.67      16.34
O       2.94      15.11      17.46
