16

C      16.31       7.65       9.81
O      17.24       9.62       6.14
C      16.54       8.35       8.62
H      16.54       9.44       8.62
C      16.75       6.25       7.44
C      17.04       8.34       6.13
O      15.84       9.62      11.10
H      16.90       5.72       6.49
O      17.08       7.66       5.07
C      16.33       6.25       9.81
C      16.04       8.34      11.11
C      16.54       5.55       8.62
H      16.18       5.72      10.75
C      16.77       7.65       7.43
O      16.00       7.66      12.17
H      16.54       4.46       8.62
