16

C      13.44       9.83      13.62
C      13.63       5.21       9.78
H      11.86       8.93      11.79
H      11.66       6.67      10.79
O      14.75       4.70       9.41
H      14.74       6.76      10.85
O      12.47       4.78       9.47
C      14.42       7.45      13.56
C      12.64       8.20      11.97
C      13.51       8.47      12.99
C      12.63       7.03      11.12
O      15.27       7.65      14.42
C      13.73       6.40      10.65
H      14.20       6.41      13.20
O      14.56      10.38      13.87
O      12.28      10.30      13.82
