30

H       5.93       9.70       4.61
H       5.93       9.83       2.14
H       6.03       5.50       1.98
H       6.01      10.91      -2.00
H       5.99       6.58      -2.18
H       6.03       6.73      -4.65
H       6.01       6.66      -0.06
H       5.97       9.74       0.03
C       5.95       7.57       6.20
C       6.05       8.86      -6.23
C       5.97       7.56       4.70
C       5.95       8.79       4.01
C       5.95       8.85       2.62
C       5.98       7.67       1.85
C       6.01       6.45       2.53
C       6.00       6.40       3.92
C       5.99       7.66       0.39
C       5.99       8.74      -0.42
C       6.01       9.97      -2.55
C       6.00       8.74      -1.88
C       6.01       7.56      -2.66
C       6.03       7.63      -4.04
C       6.04       8.86      -4.73
C       6.03      10.02      -3.94
O       5.88       6.45       6.80
O       5.98       8.72       6.77
O       5.87       9.97      -6.82
O       6.24       7.74      -6.80
F       6.04       5.17       4.48
F       6.05      11.26      -4.50
