15

H       9.60      15.61      14.04
H      10.76      16.01      16.21
H      10.27      17.72      16.34
H      12.00      17.26      16.38
C      11.02      17.04      15.93
O      12.01      15.34      13.17
O      13.45      16.78      14.06
O      10.38      19.25      13.36
O      12.30      19.28      14.50
C       9.74      16.67      13.80
C      12.26      16.38      13.85
C      11.26      18.68      14.05
C      11.05      17.18      14.39
H       9.71      16.79      12.72
H       8.91      17.24      14.23
