56

H       8.60      14.53      11.49
H       4.79      18.03       8.59
H       7.40      19.12      11.84
H       6.53      15.10       7.76
C       5.32      16.15      11.13
C       5.19      16.46      12.63
H       6.21      13.20       6.35
C       8.50      17.27       9.11
C       9.87      17.24       9.81
C      10.89      18.13       9.11
H       6.35      11.58       6.93
C       4.15      15.57      13.31
N       6.34      12.57       7.13
N       7.37      21.71      11.36
H       7.22      22.70      11.20
H       7.62      21.48      12.32
N       4.33      20.50       7.73
N       8.86      11.92      11.28
O       8.65      10.04       9.22
O       4.62      23.18       9.27
O       6.52      10.19       8.49
O       6.81      23.09       8.70
H       4.26      19.75       7.05
H       4.61      21.37       7.29
H       8.87      12.30      12.23
H       8.65      10.93      11.25
H       3.16      15.70      12.84
H       4.41      14.51      13.23
H       4.05      15.81      14.38
H       6.17      16.31      13.11
H       4.94      17.52      12.76
H       4.34      16.32      10.65
H       5.55      15.08      11.00
H      11.02      17.83       8.05
H      10.58      19.18       9.11
H      11.88      18.07       9.59
H       9.74      17.57      10.85
H      10.23      16.20       9.86
H       8.62      16.90       8.08
H       8.16      18.32       9.04
C       7.60      10.72       8.95
C       5.74      22.57       9.15
C       7.62      12.18       9.18
C       5.81      21.14       9.57
C       6.99      13.05       8.24
C       6.63      20.77      10.67
C       7.02      14.43       8.47
C       6.74      19.41      11.02
C       7.57      14.96       9.64
C       6.09      18.43      10.27
C       8.17      14.12      10.57
C       5.26      18.81       9.20
C       8.22      12.73      10.35
C       5.13      20.15       8.84
C       7.45      16.44       9.81
C       6.36      16.97      10.42
