17

C      15.28       9.93      28.45
C      16.68      10.09      28.44
C      16.01      11.92      27.19
O      17.13      13.63      26.04
O      14.85      13.61      26.10
H      18.98      11.01      28.03
O      17.07       6.48      30.93
O      18.40      11.63      27.55
O      14.80       6.34      30.69
S      14.48      11.18      27.58
S      17.48       8.85      29.33
C      16.01      13.14      26.39
C      15.94       6.88      30.50
C      17.11      11.23      27.72
C      14.87       8.78      29.16
H      13.84       8.44      29.30
C      15.95       8.11      29.69
