53

N       1.47       3.26      10.45
N       0.77       2.60      11.36
N       2.34       0.79      11.26
N      -2.83       1.65      15.21
N      -0.96       3.17      15.35
N      -0.32       2.46      14.45
N      -2.18       0.95      14.30
N      -1.04      -2.62      10.30
N      -2.75      -0.91      10.24
N      -2.09      -0.24      11.17
N      -0.40      -1.94      11.23
Si       0.10       0.29      12.80
H       5.05      -1.44      17.19
H       1.98      -4.50      17.29
H       4.98       1.95       8.32
H       2.01       5.12       8.37
H      -4.80       2.37      17.13
H      -1.52       5.20      17.27
H      -4.69      -1.56       8.28
H      -1.61      -4.61       8.34
C       4.42      -2.30      17.41
C       3.23      -2.71      16.77
C       2.84      -3.87      17.46
C       4.37       2.83       8.13
C       3.23       3.28       8.82
C       2.85       4.46       8.16
C      -4.12       3.19      17.35
C      -2.88       3.49      16.75
C      -2.43       4.64      17.42
C      -4.06      -2.42       8.10
C      -2.88      -2.80       8.76
C      -2.48      -3.99       8.14
C       2.54      -2.05      15.69
C       1.18      -0.77      13.92
C       2.55       2.63       9.92
C       1.19       1.36      11.69
C      -2.20       2.75      15.72
C      -0.95       1.37      13.94
C      -2.20      -2.08       9.82
C      -0.94      -0.77      11.64
N       3.72      -4.13      18.44
N       4.70      -3.15      18.41
N       3.70       4.69       7.15
N       4.64       3.69       7.13
N      -3.33       5.00      18.35
N      -4.38       4.09      18.30
N      -3.36      -4.30       7.17
N      -4.34      -3.33       7.15
N       3.08      -0.91      15.20
N       1.38      -2.62      15.25
N       0.69      -1.96      14.34
N       2.37      -0.25      14.29
N       3.05       1.44      10.35
