20

H       1.98       4.88      13.06
H       2.91       6.01      12.04
H       2.75       4.41      10.10
H       1.84       3.26      11.12
C       4.93       1.53      10.14
C       5.15       5.18      14.75
C       5.11       4.22      13.62
C       4.97       2.39      11.35
C       4.06       4.23      12.69
C       6.02       2.35      12.29
C       3.99       3.35      11.61
C       6.08       3.23      13.38
C       2.78       4.95      12.32
C       2.69       3.95      11.10
O       6.05       1.21       9.63
O       3.77       1.22       9.70
O       6.26       5.40      15.33
O       4.03       5.72      15.04
F       7.00       1.43      12.19
F       7.13       3.06      14.22
