26

H       4.13      11.10       1.65
H       7.10      11.10      -1.64
H       7.85      12.61       0.08
H       3.39      12.60      -0.08
H       8.83      12.47       2.35
H       2.40      12.46      -2.35
O       7.67      11.69       4.48
O       3.57      11.69      -4.48
O       5.24      10.74       5.35
O       6.00      10.74      -5.35
O       3.63      10.42       3.80
O       7.60      10.42      -3.80
C       7.06      11.72       3.30
C       4.18      11.72      -3.30
C       5.70      11.33       3.08
C       5.54      11.33      -3.08
C       5.17      11.42       1.78
C       6.07      11.42      -1.78
C       5.91      11.85       0.68
C       5.33      11.85      -0.68
C       7.24      12.24       0.91
C       3.99      12.24      -0.91
C       7.80      12.18       2.18
C       3.44      12.18      -2.18
C       4.81      10.81       4.15
C       6.43      10.81      -4.15
