20

N      13.00       8.12       1.66
N      14.12      15.09       2.06
H      13.72       8.19      -0.29
C      13.46       8.79       0.58
H      14.04      10.64      -0.31
C      13.62      10.16       0.58
C      13.30      10.90       1.73
H      12.47      10.69       3.74
H      12.28       8.23       3.60
C      12.76      10.19       2.82
C      12.64       8.81       2.75
H      13.74      12.72      -0.31
H      14.25      15.13       0.00
C      13.56      12.35       1.84
C      13.77      13.14       0.70
H      13.99      14.86       4.11
C      14.05      14.49       0.86
H      13.55      12.41       4.02
C      13.91      14.34       3.16
C      13.65      12.98       3.09
