28

O      19.23      14.21       1.27
O      21.46      13.99       1.66
H      22.47      18.05       4.14
H      18.22      18.47       3.37
F      22.70      15.82       2.97
F      18.00      16.29       2.12
H      22.47      21.93       6.27
H      18.22      22.35       5.50
F      22.70      24.11       7.52
F      18.00      24.58       6.67
C      20.35      25.79       7.89
C      20.35      14.60       1.75
C      20.35      15.92       2.47
C      21.51      16.47       3.05
C      21.54      17.69       3.72
C      20.35      18.43       3.84
C      19.16      17.92       3.29
C      19.18      16.70       2.63
C      20.35      19.66       4.53
C      20.35      20.73       5.11
C      20.35      21.97       5.79
C      21.54      22.48       6.35
C      21.51      23.69       7.01
C      20.35      24.48       7.17
C      19.18      23.92       6.59
C      19.16      22.71       5.92
O      21.46      26.19       8.36
O      19.23      26.41       7.97
