10

O       9.25      17.35       3.05
O       9.25      19.65       3.05
C       9.25      18.50       6.27
C       9.25      18.50       5.05
C       9.25      18.50       8.84
C       9.25      18.50       3.61
O       9.25      19.65      10.84
C       9.25      18.50      10.29
C       9.25      18.50       7.62
O       9.25      17.35      10.84
