16

C       2.29       8.31      11.55
C      -2.28       8.24      11.57
C      -0.08       7.57      11.57
C       0.07       8.97      11.57
C      -3.75       8.23      11.59
S      -1.45       9.78      11.57
S       1.46       6.78      11.56
O      -4.32       9.38      11.61
C       3.76       8.29      11.55
O       4.32       7.13      11.54
H      -1.79       6.13      11.58
O      -4.32       7.09      11.59
Cl       1.84      11.05      11.57
O       4.36       9.41      11.56
C       1.42       9.39      11.57
C      -1.43       7.15      11.57
