18

O      19.91       8.13      27.08
O      12.35      11.97      29.91
O      18.83       8.80      25.17
N      18.70       8.73      29.50
C      13.31      11.41      30.55
H      18.43       8.51      30.45
H      19.47       8.23      29.07
S      16.50      10.00      26.44
H      13.78      11.32      27.73
C      17.75       9.22      28.65
C      14.54      10.89      28.37
C      17.86       9.25      27.24
C      14.41      10.87      29.75
C      15.75      10.29      27.96
C      16.52       9.82      29.04
C      18.93       8.70      26.44
S      15.76      10.12      30.56
O      13.41      11.27      31.82
