18

C       7.44      -2.05      13.53
O      -0.62      -1.19      12.85
O       8.01      -2.76      14.44
H       5.49      -0.71      11.91
C       2.28      -2.52      14.65
C       5.12      -1.30      12.75
C       1.42      -1.83      13.77
C       5.98      -1.98      13.59
C       3.78      -1.49      13.12
C       3.63      -2.31      14.26
H       2.53      -3.84      16.21
H       0.87      -3.38      15.83
S       2.26      -0.95      12.51
S       5.15      -2.85      14.86
O       8.02      -1.42      12.58
C      -0.02      -1.85      13.78
O      -0.61      -2.55      14.69
N       1.87      -3.24      15.72
