16

C      18.99       8.72      26.33
O      12.37      11.92      29.85
O      18.91       8.91      25.07
O      19.89       8.06      26.95
C      17.76       9.25      28.53
S      16.61      10.15      26.38
S      15.81      10.13      30.49
F      18.61       8.65      29.38
C      13.36      11.44      30.49
O      13.48      11.33      31.76
H      13.90      11.51      27.68
C      14.64      11.03      28.32
C      17.92       9.30      27.15
C      14.49      10.95      29.69
C      15.84      10.42      27.90
C      16.58       9.88      28.97
