10

O      12.35      11.63       4.48
N      14.59      10.28       2.10
N      12.33      10.28       2.10
O      14.56      11.63       4.48
C      13.46      10.64       2.74
N      13.46      11.34       3.98
H      14.86       9.23       0.26
C      14.16       9.64       0.98
C      12.76       9.64       0.98
H      12.06       9.23       0.26
