64

H       8.68      24.38      13.04
H      13.15      19.28      13.04
H       8.36      24.07      14.96
H      13.47      19.59      14.96
H       8.76      24.40      10.56
H      13.07      19.26      10.56
H       8.34      23.99      17.44
H      13.49      19.67      17.44
H       8.81      21.36       6.73
H      13.01      22.31       6.73
H      10.44      19.73      21.28
H      11.39      23.93      21.28
H       8.82      21.36       4.22
H      13.00      22.31       4.22
H      10.44      19.73      23.78
H      11.39      23.92      23.78
C      10.91      21.83      12.57
C      12.09      22.10       6.17
C      10.64      20.64      21.83
C      11.19      23.01      21.83
C       9.73      21.56       4.78
C      12.09      22.10       4.78
C      10.65      20.64      23.22
C      10.91      21.83      15.43
C      11.19      23.01      23.22
C      10.91      21.83       4.08
C      10.92      21.83      23.93
C       9.31      23.66      12.53
C      10.91      21.83       2.58
C      10.92      21.83      25.42
C      10.91      21.83       6.86
C      12.52      20.00      12.53
C      10.06      22.74      13.27
C      11.77      20.92      13.27
C      10.00      22.68      14.73
C      11.82      20.98      14.73
C       9.09      23.44      15.47
C      12.74      20.22      15.47
C      10.92      21.83      21.14
C       9.34      23.68      11.13
C      12.49      19.98      11.13
C       9.07      23.40      16.87
C      12.76      20.26      16.87
C      10.12      22.77      10.43
C      11.70      20.89      10.43
C       9.98      22.62      17.57
C      11.85      21.04      17.57
C      10.91      21.83      11.14
C      10.91      21.83      16.86
C      10.12      22.80       8.96
C      11.70      20.85       8.95
C       9.94      22.62      19.05
C      11.89      21.04      19.05
C       9.73      21.56       6.17
N      10.91      21.83       8.30
N      10.91      21.83      19.70
O       9.81      21.55       2.00
O      12.01      22.11       2.00
O      10.64      20.72      26.01
O      11.20      22.93      26.01
O       9.48      23.63       8.31
O      12.34      20.03       8.31
O       9.11      23.26      19.69
O      12.72      20.40      19.69
