45

N      28.56      13.76      22.46
N      27.38      14.28      21.94
N      22.03      19.65      35.15
N      21.58      20.89      34.71
H      32.47      26.31      26.55
H      33.89      24.93      30.41
H      26.13      15.90      22.48
H      29.83      14.29      24.07
H      22.17      22.22      33.17
N      25.46      21.47      30.79
N      24.53      21.46      31.73
N      24.93      19.11      32.09
N      25.83      19.12      31.13
H      23.56      18.33      34.51
N      30.20      22.93      27.33
N      30.59      22.57      29.67
N      31.52      23.50      29.66
N      31.11      23.89      27.32
C      27.11      20.31      29.45
C      28.92      21.25      28.51
C      28.01      19.41      27.60
C      32.99      26.15      27.49
C      32.75      25.18      28.48
C      33.71      25.45      29.48
N      26.85      18.19      25.86
N      29.14      17.66      26.37
N      29.13      16.71      25.45
N      26.85      17.27      24.91
C      27.98      15.53      23.71
C      27.03      15.33      22.70
C      28.93      14.51      23.51
C      23.29      20.28      33.40
C      22.34      21.27      33.67
C      23.05      19.28      34.36
C      26.07      20.30      30.52
C      24.29      20.28      32.36
C      29.96      22.31      28.50
C      31.75      24.15      28.49
C      28.00      18.36      26.55
C      27.99      16.55      24.73
N      28.02      21.30      29.50
N      28.98      20.33      27.54
N      27.04      19.34      28.53
N      34.47      26.49      29.10
N      34.01      26.93      27.87
