13

C       1.38      14.09      11.15
O       2.22      13.27      11.61
N       1.08      16.23       9.94
O       5.28      17.74       9.17
C       3.05      17.03       9.68
O       3.55      18.89       8.33
H       4.12      15.41      10.79
H       0.07      16.16       9.85
O       0.12      13.92      11.07
C       4.04      17.93       9.06
N       1.74      17.24       9.38
C       3.20      15.85      10.44
C       1.91      15.36      10.59
