20

H       9.87       0.30      12.50
H       9.52       2.02      12.87
H       8.30       0.76      13.26
H       5.60       0.76       7.92
H       4.94      -1.54       8.67
H       5.94      -2.46      10.76
C       9.08       1.07      12.55
C       7.65       0.49      10.65
C       7.03       1.03       9.49
C       6.06       0.30       8.80
C       5.69      -0.97       9.22
C       6.25      -1.48      10.38
C       7.24      -0.78      11.10
C       7.77      -1.51      12.29
C       7.38       2.40       9.00
O       8.53       1.33      11.26
O       6.92      -1.75      13.22
O       8.98      -1.89      12.26
O       8.61       2.64       8.78
O       6.40       3.19       8.82
