24

C       9.77      -1.28       6.22
C       8.85      -2.89       8.69
C      10.47      -1.32       7.44
H      11.10      -1.03       2.13
H      12.33      -0.71       8.37
H      13.39       0.06       6.31
H       9.80      -0.88       4.12
H       8.74      -1.65       6.19
H       8.10      -3.12       7.94
C      10.57      -2.18       9.87
C      13.83       0.03       3.62
C      12.46      -0.28       3.78
H      11.46      -1.71      10.26
H      14.55       0.40       4.35
N      13.13      -0.66       1.66
N       8.81      -3.49       9.89
N       9.88      -3.05      10.63
C      12.07      -0.69       2.49
C       9.96      -2.03       8.61
N      14.21      -0.22       2.36
C      11.76      -0.75       7.44
C      12.36      -0.31       6.27
C      11.71      -0.42       5.03
C      10.37      -0.84       5.05
