34

H      14.24       8.38       9.33
H      14.25       8.37      13.64
H      12.56       6.17      10.23
H      12.55       6.17      12.74
H      14.50       3.76       9.32
C      14.56       3.54      10.38
C      14.56       3.54      12.59
H      14.49       3.76      13.65
H      14.86      10.63       9.32
H      14.85      10.63      13.65
C      14.34       4.38      11.48
C      14.93      10.85      10.38
H      14.07       6.07       9.33
H      14.07       6.07      13.64
N      14.90       2.30      10.80
N      14.90       2.30      12.16
H      12.73       8.50      10.22
H      16.28       5.91      10.61
H      16.28       5.91      12.37
N      15.28      12.08      10.80
N      15.28      12.08      12.17
H      16.44       8.24      10.60
H      16.45       8.24      12.36
H      12.73       8.51      12.75
C      14.93      10.85      12.58
C      14.69      10.01      11.48
C      13.61       6.48      10.24
C      13.61       6.48      12.73
C      13.72       8.03      10.24
C      13.73       8.03      12.73
C      15.78       6.35      11.48
C      14.30       5.89      11.48
C      14.48       8.53      11.48
C      15.89       7.88      11.48
