23

O       5.91       7.63       8.24
O       3.66       7.66       7.95
O       5.96      14.66       7.81
O       3.76      14.67       8.39
H       2.80       9.95       8.89
H       2.86      12.44       8.92
H       7.45      12.31       6.25
H       7.44       9.83       6.28
H       8.08       9.82       7.95
H       9.48      12.36       7.73
H       8.31      13.61       8.22
H       8.45      12.11       9.16
C       4.79       8.23       8.12
C       4.86      14.08       8.13
C       5.95      10.44       7.81
C       4.82       9.71       8.18
C       3.70      10.47       8.58
C       3.74      11.87       8.60
C       4.88      12.59       8.19
C       5.98      11.83       7.81
C       7.41      11.89       7.27
C       7.36      10.30       7.27
C       8.48      12.53       8.14
