70

C      14.83      11.48      14.53
C      12.10       8.07       9.91
C      10.85       7.67       9.26
C      22.37       6.87       7.97
C      19.46       8.54       9.75
C      16.82       9.64      13.93
C      17.99       9.96      11.09
C      17.23       7.77      10.40
C      16.99       8.97      11.09
C      15.87      11.30      15.45
C      14.76      13.29      18.47
C       9.98       6.72       9.85
C      15.98      13.58      19.10
C      18.44       7.57       9.74
C      14.55       8.82      11.15
C       9.29       7.86       7.40
C      14.73      12.55      17.30
C      13.21       8.49       9.15
C      16.86      10.35      15.12
C      14.77      10.79      13.33
C       8.81       6.34       9.22
C      15.78       9.86      13.00
C      14.40       8.87       9.75
C      17.17      13.10      18.52
C      16.03      14.35      20.39
C      17.14      12.37      17.34
C      22.75       9.26       8.03
C      13.45       8.40      11.92
C      12.25       8.05      11.31
C      19.20       9.74      10.45
H      11.09       9.00       7.57
H      20.61       6.16       8.97
H      21.23      10.45       8.94
N      15.76       9.19      11.76
H      14.06      12.23      14.73
H      22.71       5.88       7.71
H      17.59       8.91      13.69
H      17.81      10.90      11.61
H      16.46       6.99      10.39
H      13.84      13.64      18.92
H      10.25       6.26      10.80
H      18.59       6.63       9.20
O      25.33       8.71       7.10
H       9.00       8.32       6.46
O       6.76       7.19       6.30
O       6.63       5.39       7.57
H      13.77      12.30      16.84
H      13.14       8.51       8.07
O      14.89      14.84      20.78
H      17.67      10.15      15.82
H      13.96      10.98      12.63
O      24.58       6.75       6.21
H       8.15       5.59       9.67
O      17.11      14.48      21.00
H      15.25       9.19       9.14
H      18.11      13.31      19.03
H      18.07      12.04      16.89
H      23.37      10.11       7.76
H      13.54       8.37      13.01
H      11.41       7.76      11.94
H      19.95      10.52      10.49
C       7.22       6.47       7.28
C      20.74       8.33       9.04
C       8.44       6.90       7.99
C      23.16       7.98       7.64
C      10.47       8.23       8.03
C      24.45       7.80       6.92
C      15.92      12.07      16.70
C      21.18       7.05       8.68
C      21.55       9.43       8.70
