42

C       7.78       2.75       3.94
C       7.13       3.03       2.80
C       8.44      -2.36       2.70
C       7.82      -2.11       3.87
C       7.74       0.29       9.18
C       7.76       0.28       7.97
C       5.20       0.28      13.18
C       4.95      -0.28      14.38
C      10.04       0.50      13.32
C      10.25       1.08      14.52
N       6.48       0.35      11.19
N       8.88       0.34      11.26
N       7.62       0.41      13.30
N       7.80       0.32       3.86
N       7.86       1.49       5.95
N       7.72      -0.90       5.91
O      12.33       0.03      14.79
O      11.97       1.99      15.90
H       8.28       3.56       4.48
H       6.56       2.28       2.26
H       8.99      -1.59       2.16
H       7.36      -2.93       4.41
O       2.83       0.71      14.55
O       3.24      -1.15      15.79
H       4.37       0.69      12.60
H       5.72      -0.78      14.96
H      10.89       0.09      12.78
H       9.46       1.59      15.07
C      11.62       1.05      15.12
C       3.57      -0.25      14.94
C       6.50       0.34      12.54
C       7.70       0.33      10.61
O       9.35      -4.08       1.34
C       8.77       0.42      12.61
O       7.45      -4.48       2.54
C       7.79      -0.82       4.57
C       7.81       1.45       4.60
C       7.79       0.28       6.54
C       8.42      -3.74       2.15
O       8.11       5.16       2.61
O       6.26       4.71       1.38
C       7.16       4.41       2.23
