22

H      14.03      10.12       8.00
H      11.55      10.08       7.79
H      13.71      10.41      12.27
O      16.18      10.06       9.23
O      15.98      10.49      11.45
H       9.31      10.14       8.87
H      11.47      10.29      13.36
H       8.99      10.19      13.15
O       6.84      10.13      11.94
O       7.04      10.12       9.68
C      15.50      10.29      10.29
C      14.01      10.28      10.16
C      13.40      10.17       8.88
C      12.02      10.15       8.77
C      11.20      10.20       9.93
C      11.82      10.27      11.22
C      13.23      10.33      11.30
C       9.79      10.17       9.85
C       9.01      10.17      10.99
C       9.63      10.20      12.27
C      11.00      10.26      12.38
C       7.52      10.14      10.86
