20

H       2.91       6.00       7.02
H       1.13       5.99       7.00
H       1.10       8.16       8.27
H       2.88       8.19       8.27
C       2.01      11.19       6.40
C       2.01       6.10       3.47
C       2.02       7.40       4.21
C       2.00       9.90       5.65
C       2.03       7.46       5.60
C       2.02       9.85       4.25
C       1.99       8.67       6.29
C       2.00       8.64       3.55
C       2.02       6.62       6.86
C       1.99       7.99       7.65
O       1.07      11.36       7.25
O       2.96      12.00       6.17
O       1.05       5.90       2.65
O       2.95       5.29       3.74
F       2.02      11.00       3.53
F       1.99       8.69       2.20
