16

Cl       4.29       2.60       7.37
O       8.12       0.86       2.57
C       3.81       2.89       5.76
C       4.86       2.47       2.33
S       2.52       3.62       3.60
C       6.03       1.87       2.77
C       4.05       2.85       3.42
S       6.16       1.77       4.50
C       4.62       2.52       4.66
C       2.63       3.50       5.34
C       1.53       4.03       6.13
O       6.94       1.37       0.67
H       4.63       2.61       1.27
O       0.59       4.62       5.47
O       1.57       3.88       7.40
C       7.11       1.33       1.94
