26

C       1.29       1.57       4.28
H      -0.30      -1.42       6.11
H      -0.97       2.65       8.85
H      -2.31       0.60       9.32
O       2.05       2.85       7.87
O       0.78       3.92       6.33
O      -3.02      -1.85       8.89
O      -1.65      -2.85       7.39
H       2.20      -1.24       5.96
H       3.83      -1.36       4.08
H       3.83       0.41       2.33
H       2.18       2.28       2.45
H       0.56       2.39       4.33
C      -0.44      -0.52       6.70
C       0.30       0.63       6.39
C       0.10       1.77       7.20
C      -0.84       1.76       8.23
C      -1.58       0.61       8.51
C      -2.06      -1.83       8.03
C      -1.36      -0.55       7.76
C       1.04       2.93       7.11
C       1.28       0.59       5.28
C       2.20      -0.47       5.19
C       3.11      -0.54       4.13
C       3.11       0.45       3.15
C       2.20       1.50       3.22
