31

H       3.61      -3.45      20.12
H      -0.24      -4.64      18.66
H      -0.19      -2.78      16.99
H       3.56       1.75      15.64
H       3.52       3.74      14.11
H      -0.50       2.78      12.94
H      -0.46       0.76      14.43
H       3.93      -1.25      20.37
C       1.51       4.54      12.51
C       2.82      -2.23      18.51
C       2.78      -3.27      19.44
C       1.67      -4.13      19.51
C       0.60      -3.96      18.62
C       0.64      -2.94      17.68
C       1.73      -2.04      17.61
C       1.69      -0.96      16.71
C       1.60      -0.00      15.96
C       2.68       1.98      15.04
C       2.66       3.08      14.19
C       1.51       3.37      13.43
C       0.38       2.54      13.53
C       0.40       1.42      14.36
C       1.55       1.13      15.12
C       1.63      -5.21      20.54
C       4.03      -1.34      18.45
O       2.61       5.15      12.35
O       0.41       4.84      11.94
O       2.73      -5.52      21.12
O       0.50      -5.73      20.77
O       4.57      -0.99      17.42
O       4.54      -0.96      19.66
