39

F       9.39      20.97       7.88
F       9.00      23.07       7.49
F      10.40      22.50       9.08
F      12.00      20.20       7.84
F      13.26      21.20       6.34
F      12.97      22.10       8.31
C      11.12      22.22       6.77
C      10.54      21.60       5.49
C       9.85      22.46       4.63
C       9.35      22.02       3.41
C       9.51      20.67       3.05
C      10.15      19.80       3.93
C      10.66      20.26       5.14
C       8.78      23.02       2.45
C       9.27      20.19       1.66
C      11.63      23.64       6.45
C      12.41      23.76       5.28
C      12.85      25.00       4.82
C      12.50      26.16       5.53
C      11.78      26.04       6.72
C      11.34      24.79       7.18
C      13.77      24.97       3.64
C      12.77      27.56       5.04
C       9.98      22.19       7.83
C      12.34      21.42       7.33
H       9.74      23.52       4.87
H      10.29      18.75       3.65
H      11.18      19.55       5.79
H      12.67      22.88       4.69
H      11.51      26.94       7.26
H      10.76      24.75       8.10
O       9.13      24.24       2.60
O       8.04      22.57       1.52
O       8.26      19.47       1.33
O      10.19      20.43       0.80
O      14.71      25.82       3.60
O      13.58      24.06       2.77
O      13.08      28.42       5.91
O      12.60      27.84       3.79
