22

O      21.27       2.19       1.56
O      18.99       2.03       1.67
O      18.83       8.83       7.04
O      21.08       9.06       6.76
H      17.39       7.33       6.27
H      16.97       6.70       4.65
H      17.23       5.57       5.98
H      17.01       4.77       3.23
H      17.31       3.64       4.55
H      17.49       3.09       2.86
C      20.12       2.56       1.98
C      20.12       3.71       2.89
C      20.99       5.60       4.19
C      20.02       7.30       5.67
C      19.96       8.47       6.55
C      19.03       6.44       5.20
C      17.57       6.52       5.56
C      19.59       5.45       4.34
C      19.09       4.34       3.57
C      17.65       3.93       3.54
S      21.69       4.44       3.16
S      21.62       6.92       5.07
