34

H       9.11       9.50       5.24
H      12.52      12.12       5.24
H      12.12      12.52      12.02
H       9.50       9.11      12.02
H       7.97      10.07       8.25
H       8.30       8.57       7.37
H      13.65      11.55       8.25
H      13.32      13.05       7.37
H      11.55      13.65       9.01
H      13.05      13.32       9.89
H      10.07       7.97       9.01
H       8.57       8.30       9.89
O      10.17       9.87       3.04
O      11.46      11.75       3.04
C      10.81      10.81       3.62
C      10.81      10.81      13.64
O      11.75      11.46      14.22
O       9.87      10.17      14.22
C       8.77       9.35       7.99
C      12.86      12.27       7.99
C      12.27      12.86       9.27
C       9.35       8.77       9.27
C       9.85      10.07       5.81
C       9.83      10.08       7.20
C      11.78      11.55       5.81
C      11.80      11.54       7.20
C      11.55      11.78      11.45
C      11.54      11.80      10.06
C      10.07       9.85      11.45
C      10.08       9.83      10.06
C      10.81      10.81       5.11
C      10.81      10.81       7.90
C      10.81      10.81      12.15
C      10.81      10.81       9.36
