32

N       0.99      12.89      12.99
N      -1.07      12.89      14.79
H      -2.01      10.26      12.34
N      -1.06      11.97      13.84
N       0.97      13.80      13.94
H       1.90      15.54      15.40
O      -1.15      17.96      19.61
O       1.08       7.79       8.20
O       1.12      18.08      19.45
O      -1.19       7.70       8.31
H      -2.03       8.60      10.46
H       1.94      17.18      17.30
H       1.96      11.50      11.19
H      -2.04      14.27      16.59
H       1.96       9.76       9.38
H      -2.03      15.98      18.42
C      -0.02      17.65      19.10
C      -0.05       8.11       8.69
C      -1.16       9.23      10.65
C       1.07      16.55      17.12
C      -1.15      10.15      11.68
C       1.05      15.64      16.08
C      -0.03      10.98      11.88
C      -0.07      14.80      15.89
C       1.10      10.85      11.04
C      -1.18      14.92      16.74
C       1.10       9.89      10.03
C      -1.18      15.87      17.76
C      -0.03       9.09       9.82
C      -0.05      16.67      17.97
C      -0.06      13.79      14.82
C      -0.03      11.99      12.95
