28

H       9.67       6.94       7.80
H      19.47       9.43      10.46
H      12.17       6.70       7.64
H      16.98       9.58      10.78
C       9.73      10.13      10.96
C      19.29       6.88       6.77
N       9.75       8.43       9.23
N      19.33       8.24       8.77
H      13.57       9.76      10.67
H      15.45       7.16       7.28
H       8.66      10.26      10.68
H      20.39       7.02       6.81
O      12.62       9.92      10.86
O      16.39       7.01       7.05
O      10.23      10.71      11.92
O      18.74       6.23       5.89
C      11.90       9.13      10.05
C      17.15       7.64       7.96
C      10.49       9.20      10.07
C      18.56       7.60       7.86
C      10.34       7.55       8.41
C      18.78       8.94       9.78
C      11.72       7.42       8.33
C      17.40       9.02       9.95
C      12.53       8.23       9.14
C      16.56       8.36       9.04
C      13.94       8.23       9.09
C      15.15       8.35       9.14
