42

C      -2.69       0.30       5.58
I      -7.85      -1.08       6.07
H     -11.12       8.16       8.08
N     -10.33      10.04       7.54
H      -7.30       9.50       6.56
H      -6.58       7.52       8.23
H     -10.23       5.91       6.61
N      -9.11      10.47       7.06
H     -10.44       3.45       6.23
H      -9.43       1.22       6.18
H      -3.87       1.37       8.34
H      -3.70       3.77       8.82
H      -4.69       6.03       8.79
N      -4.18      -2.89       8.37
N      -3.08      -2.30       7.82
O      -2.49      -0.25       6.90
H      -6.22      -2.35       8.58
H      -3.71       0.68       5.46
H      -2.48      -0.47       4.82
H      -1.98       1.13       5.49
C      -4.84      -0.89       7.56
C     -10.26       8.71       7.69
C      -8.31       9.40       6.95
C      -8.99       8.23       7.34
C      -7.16       6.66       7.87
C      -8.46       6.87       7.40
C      -9.22       5.76       6.99
C      -8.68       4.46       7.01
C      -7.34       4.26       7.47
C      -6.58       5.39       7.92
C      -9.41       3.32       6.56
C      -8.85       2.07       6.54
C      -7.50       1.84       6.97
C      -6.76       2.96       7.46
C      -5.43       2.79       7.94
C      -4.70       3.93       8.43
C      -5.25       5.17       8.42
C      -6.86       0.57       6.94
C      -5.56       0.39       7.44
C      -5.24      -2.07       8.20
C      -4.87       1.51       7.94
C      -3.46      -1.09       7.35
