16

C       3.51      20.11       5.87
C       2.04      19.88       5.77
C       1.21      20.72       5.01
C      -0.15      20.45       4.92
C       1.49      18.77       6.43
C       0.13      18.51       6.34
C      -2.17      19.07       5.53
C      -0.70      19.35       5.59
O       4.04      21.03       5.15
H       1.66      21.58       4.50
H       2.15      18.12       7.00
O       4.14      19.34       6.67
H      -0.81      21.10       4.33
H      -0.31      17.65       6.85
O      -2.85      19.70       4.66
O      -2.61      18.22       6.37
