18

C      10.39       1.42       0.49
C      10.16      -1.80       2.45
C       8.19       1.27       1.47
C      11.39       2.15      -0.33
O      11.27      -2.35       2.21
C      10.73       0.19       1.06
C       6.84       1.85       1.70
H       7.79      -0.50       2.65
O      11.08       3.22      -0.93
H      11.73      -0.24       0.90
C       9.12       1.96       0.69
O       5.95       1.21       2.32
C       8.52       0.04       2.04
O       9.30      -2.38       3.24
O      12.58       1.67      -0.44
C       9.80      -0.50       1.84
O       6.58       3.03       1.23
H       8.86       2.92       0.24
