24

O       4.69      17.60       7.68
O       1.81      24.25      17.68
H       4.32      23.16      12.33
H       2.24      18.77      13.00
H       2.18      22.09      10.79
H       4.38      19.83      14.55
H       5.66      20.65      12.14
H       0.91      21.27      13.20
C       3.55      17.94       8.15
C       2.95      23.99      17.16
C       2.67      21.60      11.64
C       3.90      20.32      13.69
C       3.86      22.17      12.46
C       2.70      19.75      12.87
C       2.97      23.17      15.98
C       3.55      18.77       9.33
C       1.96      21.12      12.95
C       4.60      20.80      12.38
C       3.15      21.72      13.80
C       3.42      20.21      11.53
C       3.04      22.50      14.97
C       3.51      19.43      10.35
O       2.41      17.64       7.68
O       4.08      24.39      17.59
