36

H       3.95      -0.82       3.42
H       5.51       1.16       5.17
H       3.78       0.71       5.38
H       5.38      -2.47       1.92
H       4.37       1.39       7.74
H       4.57      -2.28      10.03
H       5.96      -3.22       8.26
H       6.31      -4.56       6.28
H       5.15       1.79       2.78
H       4.42       0.65       1.60
H       6.12       1.19       1.40
H       7.64      -5.78       4.96
H       7.34      -7.21       3.91
H       6.98      -7.30       5.66
C       4.80      -0.72       8.41
C       5.24      -0.90       5.95
C       5.32      -1.42       7.24
C       5.79      -2.75       7.29
C       6.01      -3.53       6.14
C       5.77      -3.04       4.83
C       5.44      -1.68       4.81
C       4.93      -0.59       3.88
C       5.35      -3.47       2.34
C       5.65      -3.88       3.65
C       4.79       0.32       5.17
C       4.33       0.60       8.49
C       4.43      -1.27       9.65
C       5.48      -5.29       3.59
C       5.35       0.92       2.13
C       6.98      -6.65       4.78
N       3.73       0.82       9.67
N       3.79      -0.35      10.40
N       5.08      -5.66       2.35
N       5.00      -4.53       1.59
O       5.85      -0.18       2.89
O       5.62      -6.22       4.58
