26

H       4.10      -0.65       7.12
H       5.40      -4.93       8.55
H       2.06      -2.04      10.74
H       3.18      -1.23       8.71
H       7.52      -3.50       5.00
H       6.35      -4.34       6.98
Cl       5.04       0.75       5.01
Cl       4.51      -6.30      10.69
O       7.06      -0.07       3.22
O       2.56      -5.45      12.55
O       1.47      -3.46      12.50
O       8.12      -2.08       3.25
C       7.29      -1.23       3.71
C       2.32      -4.30      12.04
C       6.51      -1.62       4.92
C       3.08      -3.92      10.81
C       5.52      -0.83       5.55
C       4.85      -1.30       6.68
C       4.04      -4.72      10.16
C       4.68      -4.27       9.01
C       2.80      -2.66      10.24
C       3.44      -2.21       9.10
C       6.77      -2.89       5.48
C       6.10      -3.35       6.60
C       5.12      -2.56       7.24
C       4.40      -3.01       8.45
