20

H       0.48       6.36      10.98
H       0.61       4.79      12.90
H       5.73       6.06      13.49
H       5.58       7.87      11.72
H       4.76       8.93      12.91
C       2.29       8.24      10.22
C       3.48       7.27      12.21
C       2.37       7.30      11.36
C       1.34       6.38      11.63
C       1.42       5.49      12.71
C       2.53       5.48      13.58
C       3.55       6.37      13.28
C       4.95       6.81      13.64
C       4.82       7.91      12.52
C       2.56       4.59      14.77
Br       5.28       7.45      15.48
O       3.41       8.66       9.77
O       1.13       8.54       9.77
O       3.70       4.28      15.24
O       1.43       4.25      15.24
