45

N      18.27       6.08       3.71
N      17.32       6.12       2.72
N      23.15      14.05       3.02
N      24.15      14.29       2.11
H      17.00      13.06      -1.46
H      20.03      13.83      -4.46
N      24.26       6.02      -2.50
N      23.19       6.01      -3.37
H      17.06       7.23       0.95
H      20.08       7.13       4.06
H      24.67      13.46       0.23
H      21.52      12.72       3.12
H      24.81       7.24      -0.86
H      21.44       7.17      -3.58
H      20.53      11.56      -2.82
H      18.58      11.57      -0.43
H      20.57       9.01       2.08
H      18.57       8.83      -0.26
H      22.83      11.46      -0.53
H      20.56      11.25       1.52
H      22.83       9.06      -0.23
H      20.52       9.09      -2.27
C      17.63      13.43      -2.26
C      18.86      12.95      -2.74
C      19.16      13.82      -3.80
C      17.68       7.04       1.82
C      18.90       7.64       2.20
C      19.22       6.99       3.41
C      23.99      13.44       1.08
C      22.86      12.62       1.30
C      22.38      13.06       2.55
C      24.08       7.05      -1.64
C      22.88       7.71      -1.92
C      22.36       7.01      -3.03
C      20.31      10.20      -0.38
C      19.66      11.85      -2.23
C      19.42      11.24      -1.05
C      19.68       8.66       1.54
C      19.43       9.19       0.33
C      22.29      11.64       0.40
C      21.11      11.03       0.61
C      22.29       8.78      -1.14
C      21.10       9.36      -1.37
N      18.20      14.76      -3.93
N      17.24      14.51      -2.97
