14

H       6.73       0.11       4.83
C       7.53       0.14       5.57
O       8.37      -1.55       8.67
C       7.49      -0.71       6.67
H       6.67      -1.41       6.80
C      10.66       0.39       8.49
H      10.46       1.75       6.26
O      10.67      -0.24       9.60
C       8.51      -0.71       7.67
C       9.59       0.22       7.49
O      11.60       1.23       8.23
Br       8.68       2.19       3.90
C       9.62       1.06       6.36
C       8.61       1.03       5.42
