34

H       1.82       8.45      13.82
H       0.95       9.18      11.62
H       5.76       9.77      12.73
H       0.92       9.07       9.25
H       0.44      10.64      10.00
H       1.05      10.59       8.31
H       4.05      10.48       7.46
H       4.07      12.08       5.51
H       8.03      13.34       6.56
H       8.02      11.78       8.54
S       6.03       9.92       9.44
O       3.55       8.37      15.67
O       5.64       8.47      14.87
O       2.50      10.37       9.71
O       5.05      10.81      10.41
O       5.36       8.70       9.10
O       7.33       9.89      10.05
O       5.06      13.84       4.02
O       7.15      14.41       4.60
C       4.38       8.60      14.73
C       3.84       9.05      13.42
C       2.49       8.91      13.09
C       2.00       9.32      11.86
C       2.86       9.93      10.93
C       4.21      10.11      11.29
C       4.71       9.66      12.50
C       1.14      10.15       9.31
C       6.04      11.04       8.07
C       4.92      11.10       7.24
C       4.93      11.99       6.17
C       6.06      12.78       5.92
C       7.17      12.71       6.77
C       7.17      11.84       7.86
C       6.08      13.74       4.76
