24

N      19.45      12.59       8.59
N      12.60      20.53       7.81
N      20.53      12.60       7.81
H      16.18      19.49       6.01
H      13.64      16.95       9.61
O      17.28      17.28       6.81
H      16.95      13.64       9.61
O      15.86      15.86       8.81
H      19.49      16.18       6.02
C      14.41      19.43       7.31
C      13.71      18.72       8.31
C      19.43      14.41       7.31
C      18.72      13.71       8.31
C      15.63      18.96       6.79
C      14.18      17.51       8.84
C      18.96      15.63       6.79
C      17.51      14.18       8.84
C      16.09      17.76       7.30
C      15.37      17.05       8.32
C      17.76      16.09       7.31
C      17.05      15.37       8.32
N      13.69      20.55       7.03
N      12.59      19.45       8.59
N      20.55      13.69       7.03
