40

H      23.26       7.90       3.03
H      18.97       7.90       3.04
H      23.26       0.23       8.46
H      18.97       0.23       8.46
C      21.12       8.01       2.95
C      22.33       7.44       3.36
C      22.35       6.30       4.16
C      21.12       5.72       4.57
C      19.88       6.30       4.16
C      19.91       7.44       3.36
C      21.12       4.56       5.39
C      21.12       3.56       6.10
C      21.12       2.40       6.92
C      22.35       1.82       7.33
C      22.33       0.69       8.13
C      21.12       0.11       8.54
C      19.91       0.69       8.13
C      19.88       1.82       7.33
H      17.97       5.44       3.69
H      18.67       4.84       5.20
H      17.96       6.47       5.13
H      24.27       6.47       5.13
H      23.57       4.84       5.19
H      24.27       5.45       3.68
H      17.97       2.69       7.81
H      18.67       3.29       6.29
C      18.55       5.73       4.57
C      23.68       5.73       4.57
C      18.55       2.40       6.92
C      23.68       2.40       6.92
H      24.27       1.66       6.36
H      23.56       3.29       6.30
H      24.27       2.68       7.81
H      17.96       1.66       6.36
O      22.25      -1.58       9.74
O      19.98      -1.58       9.73
C      21.12      -1.10       9.40
C      21.12       9.23       2.09
O      22.26       9.70       1.76
O      19.98       9.70       1.76
