18

O       5.48       1.30       8.36
O       4.47      -0.25       7.04
O       5.86       5.93       6.65
O       4.07       6.76       5.49
O       1.47       3.38       2.83
O       2.30       1.26       2.85
C       4.31       2.06       6.45
C       4.73       3.38       6.66
C       4.27       4.41       5.83
C       3.37       4.11       4.80
C       3.02       2.78       4.53
C       3.49       1.76       5.36
C       4.79       0.96       7.35
C       4.75       5.83       6.00
C       2.19       2.45       3.32
H       5.43       3.60       7.46
H       2.99       4.92       4.18
H       3.21       0.73       5.16
