22

C      -1.34       3.91       2.23
C      -4.59      10.61       1.35
H      -3.02       8.54       2.27
H      -2.22       6.51       2.27
C       0.38       4.55       1.06
C      -2.94      11.23       0.06
H      -2.25       3.82       2.81
H      -5.25      10.14       2.07
N      -0.69       2.81       1.81
N      -5.03      11.56       0.51
H      -0.66       9.54       0.57
H       0.42       7.45       0.97
N       0.40       3.22       1.07
N      -4.00      11.95      -0.30
C      -0.71       5.09       1.77
C      -3.22      10.32       1.11
C      -1.22       8.84       1.19
C      -0.59       7.55       1.38
C      -2.46       9.21       1.61
C      -1.20       6.43       1.86
F       1.32       5.21       0.35
F      -1.77      11.38      -0.59
