14

H       3.66      11.12       9.31
C       6.67      12.27       7.79
H       3.63      13.06       6.91
C      -0.82      12.01       8.37
C       8.10      12.28       7.86
C       0.61      11.90       8.45
C       3.23      11.76       8.54
C       4.06      12.42       7.68
C       5.45      12.33       7.75
C       1.83      11.84       8.49
O      -1.42      11.05       7.78
O       8.69      13.04       7.01
O      -1.33      13.06       8.89
O       8.65      11.55       8.76
