18

C       8.15      13.60       5.37
C       4.33      15.83       1.64
C       6.31      15.99       3.13
O       3.36      15.13       1.17
O       4.48      17.08       1.43
O       6.81      11.38       4.84
O       5.75      11.10       2.93
C       5.35      15.18       2.50
H       7.95      16.07       4.52
H       6.29      17.06       2.94
H       4.66      13.14       2.21
N       6.29      11.80       3.80
C       7.23      15.43       4.00
O       9.24      12.99       5.08
O       7.80      13.99       6.51
C       5.37      13.80       2.70
C       6.32      13.26       3.57
C       7.24      14.06       4.26
