26

C       0.08      16.51      19.54
C       0.08      16.53      26.78
C       1.28      16.51      20.25
C       1.27      16.50      21.64
C      -1.12      16.51      26.07
C      -1.11      16.49      24.69
C       1.28      16.51      26.06
C       1.27      16.50      24.67
C      -1.12      16.50      20.26
C      -1.11      16.49      21.65
C       0.09      16.49      22.42
C       0.07      16.49      23.90
H       2.24      16.52      19.73
H      -2.08      16.51      26.60
H       2.23      16.52      26.60
H       2.22      16.49      24.16
H      -2.06      16.50      19.72
H      -2.06      16.49      22.16
C       0.09      16.51      18.05
O       1.23      16.51      17.47
O      -1.05      16.51      17.46
C       0.08      16.56      28.27
O      -1.06      16.57      28.86
O       1.22      16.57      28.86
F       2.51      16.51      22.21
F      -2.35      16.47      24.11
