23

H       5.46       7.98       6.29
H      -0.44      11.28       6.11
H       0.41       8.51       8.43
H       0.44      10.99       8.77
H       6.12      10.89       6.33
C       2.92      13.03       6.99
C       0.51      10.71       7.71
C       3.31       7.18       6.76
C       1.94      10.71       7.17
C       3.06      11.55       6.97
C       4.27      10.89       6.71
C       4.33       9.47       6.62
C       3.21       8.65       6.82
C       2.01       9.33       7.10
C       0.59       9.12       7.53
Cl      -0.54       8.48       6.28
O       1.79      13.48       6.61
O       5.43      11.57       6.48
O       5.56       8.98       6.32
O      -0.53      11.42       7.07
O       3.92      13.73       7.36
O       2.27       6.50       6.97
O       4.48       6.68       6.50
