24

H       5.70       7.46       4.76
H       4.97       7.51       2.44
H       8.77       5.67       1.38
H       2.87       7.55      -1.38
H       6.68       5.74      -2.44
H       5.95       5.78      -4.76
H       7.24       6.19      -0.42
H       4.40       7.04       0.42
C       6.36       7.08       3.99
C       5.95       7.09       2.66
C       6.80       6.57       1.66
C       8.05       6.09       2.08
C       8.35       6.11       3.44
C       6.44       6.49       0.25
C       5.21       6.74      -0.25
C       3.60       7.14      -2.08
C       4.85       6.67      -1.66
C       5.69       6.14      -2.66
C       5.29       6.16      -3.99
C       3.29       7.12      -3.44
N       7.55       6.57       4.40
N       4.10       6.67      -4.40
F       9.54       5.63       3.82
F       2.10       7.59      -3.81
