26

C       4.59       4.41      22.72
C       4.09       4.36      21.40
C       2.95       3.58      21.15
C       2.35       2.85      22.17
C       2.85       2.92      23.48
C       3.97       3.71      23.75
C       4.75       5.13      20.32
C       5.51       6.28      20.61
C       6.14       6.99      19.60
C       6.01       6.60      18.26
C       5.24       5.47      17.96
C       4.63       4.74      18.97
O       2.54       2.39      25.78
O       1.35       1.25      24.22
H       2.52       3.54      20.15
H       1.47       2.23      21.98
H       4.35       3.76      24.77
H       5.49       4.98      22.93
H       5.59       6.63      21.64
H       6.73       7.88      19.83
H       5.14       5.17      16.91
H       4.07       3.84      18.71
C       2.20       2.14      24.58
C       6.69       7.37      17.18
O       6.43       7.05      15.97
O       7.49       8.30      17.55
