29

C       9.06      -3.95      11.53
C      10.16      -4.81      11.48
C       9.75      -5.86      10.66
C      11.52      -4.67      12.17
N      11.44      -1.46      14.06
N      11.44      -2.35      15.10
H      11.49      -4.47      15.24
H      11.48      -1.65      11.95
N      14.57      -3.68      10.27
N      13.72      -3.98       9.23
H      11.71      -4.64       9.10
H      14.38      -3.70      12.38
N      11.61      -7.86      14.09
N      12.87      -7.87      13.56
H      13.94      -6.56      12.27
H       9.96      -6.54      13.97
N       8.48      -5.65      10.24
N       8.05      -4.46      10.78
H       8.93      -3.01      12.06
H      10.27      -6.76      10.37
C      11.47      -3.60      14.58
C      11.48      -3.54      13.19
C      11.46      -2.16      12.91
C      12.54      -4.37       9.75
C      12.60      -4.33      11.15
C      13.90      -3.89      11.42
C      13.01      -6.75      12.81
C      11.84      -5.99      12.86
C      10.98      -6.74      13.68
