44

O       3.12      39.21      19.96
O       1.31      39.89      18.89
C       2.17      36.61      14.73
O       1.20      39.37      15.56
O       3.06      39.90      16.63
O       3.13      33.85      15.56
O       1.27      33.33      16.63
C       2.16      36.61      27.55
C       2.16      36.61      26.02
C       2.14      35.41      25.28
C       2.18      35.41      23.89
C       2.17      36.61      23.15
C       2.15      37.81      23.89
C       2.19      37.81      25.28
C       2.17      36.61      21.75
C       2.17      36.61      20.53
C       2.17      36.61      19.12
C       2.15      35.41      18.38
C       2.19      35.41      16.99
C       2.17      36.61      16.25
C       2.14      37.81      16.99
C       2.18      37.81      18.38
N       2.14      34.08      25.95
N       2.19      39.14      25.95
N       2.12      39.09      23.14
N       2.21      34.13      23.14
N       2.12      34.13      19.14
N       2.21      39.09      19.14
N       2.14      39.14      16.32
N       2.19      34.08      16.32
O       3.20      36.16      14.17
O       1.13      37.06      14.17
O       3.20      37.06      28.11
O       1.13      36.16      28.11
O       1.20      33.85      26.72
O       3.06      33.33      25.65
O       3.13      39.37      26.72
O       1.27      39.90      25.65
O       1.21      39.21      22.32
O       3.02      39.89      23.39
O       3.12      34.02      22.32
O       1.31      33.33      23.39
O       1.21      34.02      19.96
O       3.02      33.33      18.89
