30

C       6.92      13.78       7.95
C       6.83      12.37       7.98
C       5.80      14.51       8.47
C       4.70      12.40       8.94
C       4.70      13.78       8.95
C       3.57      17.91       9.59
H       7.66      11.76       7.61
H       8.23      18.10       6.90
H       3.87      11.79       9.30
H       3.85      14.33       9.35
N       5.68      15.89       8.55
N       5.77      11.72       8.45
N       8.03      14.38       7.46
N       6.70      16.56       8.16
H       5.30      20.67       9.86
N       6.81      20.75       8.44
N       8.56      20.76       6.89
H       8.05      15.41       7.50
H       8.80      13.83       7.11
H       8.77      21.73       7.16
H       9.25      20.25       6.36
H       3.00      17.51      10.44
H       3.57      17.19       8.76
H       3.12      18.87       9.27
O       4.90      18.12      10.08
C       5.93      20.07       9.20
C       5.77      18.69       9.18
C       6.62      17.96       8.30
C       7.56      18.66       7.54
C       7.65      20.07       7.62
