42

H      -3.53       9.88       7.80
H      -2.44       5.72       7.88
H      -2.45       5.77      10.39
H      -3.53       9.93      10.30
C      -4.54      12.25       2.31
C      -4.52      12.45      15.82
C      -1.39       3.43       2.15
C      -1.42       3.61      16.08
C      -3.31       9.05      13.90
C      -2.99       7.90      11.97
C      -2.64       6.90      13.98
C      -3.32       8.87       4.25
C      -2.98       7.79       6.21
C      -2.62       6.73       4.24
C      -3.30       8.98       8.37
C      -2.98       7.80       7.69
C      -2.68       6.63       8.42
C      -2.68       6.66       9.81
C      -2.99       7.85      10.49
C      -3.30       9.01       9.76
C      -2.22       5.57       3.51
C      -1.85       4.60       2.88
C      -3.72      10.05       3.55
C      -4.08      11.06       2.99
C      -2.25       5.76      14.74
C      -1.88       4.79      15.38
C      -4.05      11.28      15.11
C      -3.69      10.26      14.56
N      -3.33       9.06      12.55
N      -2.64       6.78      12.64
N      -2.97       8.01      14.68
N      -3.34       8.92       5.59
N      -2.61       6.65       5.58
N      -2.97       7.80       3.50
O      -5.68      12.69       2.66
O      -3.76      12.73       1.42
O      -5.60      12.98      15.42
O      -3.82      12.81      16.82
O      -0.21       3.03       2.43
O      -2.20       2.92       1.32
O      -0.21       3.28      15.90
O      -2.29       2.99      16.78
