42

C       7.70       0.47      26.43
C       7.70       0.46      25.21
C       4.97      -0.27      20.02
C       5.23       0.37      21.18
C      10.09       0.51      21.11
C      10.32       1.11      19.93
N       6.49       0.49      23.18
N       8.88       0.43      23.15
N       7.66       0.44      21.10
H       6.44       2.46      32.16
H       8.07       3.79      29.90
N       7.69       0.55      30.54
N       7.73       1.70      28.44
N       7.67      -0.69      28.49
H       7.34      -2.72      29.99
H       8.85      -1.32      32.30
O      12.42       0.09      19.71
O      12.05       2.04      18.59
H       5.74      -0.81      19.47
H       4.41       0.83      21.72
O       2.79       0.61      19.92
O       3.33      -1.09      18.52
H      10.92       0.06      21.66
H       9.55       1.66      19.39
C      11.70       1.09      19.36
C       3.59      -0.25      19.46
O       7.28      -4.18      32.00
O       9.25      -3.83      33.09
C       6.53       0.43      21.84
C       7.69       0.46      23.78
C       8.80       0.47      21.81
O       7.96       5.36      31.75
O       6.14       4.91      33.04
C       8.30      -3.47      32.33
C       7.02       4.60      32.17
C       7.72      -0.60      29.84
C       7.67       1.67      29.79
C       7.70       0.49      27.85
C       6.99       3.23      31.61
C       7.61       2.97      30.44
C       8.33      -2.10      31.74
C       7.77      -1.88      30.55
