18

C      -5.32       4.54      14.67
C      -8.50       2.39      14.92
C      -5.52       5.80      15.12
C      -7.65       3.62      14.84
C      -6.30       3.49      14.70
C      -9.54       5.00      15.45
O      -8.24       4.84      14.83
C      -4.46       6.80      15.28
O      -8.12       1.47      15.71
H      -4.31       4.27      14.33
H      -6.48       6.10      15.53
O      -3.39       6.74      14.55
H      -5.94       2.46      14.61
O      -4.67       7.69      16.17
O      -9.55       2.35      14.18
H     -10.32       4.53      14.84
H      -9.54       4.57      16.46
H      -9.69       6.08      15.51
