26

C       7.34       9.97      15.53
C      10.40       3.42      19.51
C       7.51       8.22      14.02
C      10.26       5.19      21.01
C       8.27       7.47      14.91
C       9.49       5.93      20.13
C       8.10       9.28      16.47
C       9.63       4.11      18.58
C       8.58       8.01      16.16
C       9.16       5.39      18.88
C       9.34       7.19      17.16
C       8.39       6.21      17.88
N       7.05       9.45      14.32
N      10.70       3.95      20.71
H       6.95      10.97      15.72
H      10.77       2.42      19.33
H       7.24       7.84      13.04
H      10.53       5.57      21.99
H       8.60       6.48      14.61
H       9.16       6.93      20.43
H       8.31       9.74      17.44
H       9.40       3.65      17.62
H      10.14       6.61      16.66
H       7.60       6.78      18.39
H       9.83       7.84      17.91
H       7.91       5.56      17.14
