26

O      15.69      25.30      13.70
O      14.70      26.37      15.44
H      10.86      23.54      13.40
H      12.03      22.48      12.59
H      13.57      24.24      12.54
H      12.40      25.28      13.37
H      15.18      22.83      13.87
H      15.17      22.89      15.64
H      13.63      21.08      13.94
H      13.61      21.16      15.70
H      10.83      23.65      15.94
H      11.94      22.67      16.88
H      13.51      24.40      16.84
H      12.38      25.38      15.91
C      11.02      21.21      14.71
C      14.81      25.40      14.61
C      11.89      23.15      13.45
C      12.91      24.31      13.42
C      13.79      24.28      14.70
C      14.52      22.91      14.75
C      13.49      21.76      14.79
C      12.06      22.33      14.75
C      11.85      23.26      15.96
C      12.88      24.41      15.93
O      11.25      20.24      13.92
O       9.98      21.36      15.43
