27

C      12.93       9.15      14.87
C      11.73       7.57      16.26
C      12.19       8.25      17.39
H      13.22       9.49      13.88
H      11.10       6.69      16.35
C      13.36       9.83      16.01
O      12.28       7.63      12.67
O      10.76       6.43      13.87
H      11.93       7.88      18.38
C      13.00       9.39      17.30
C      13.38      10.13      18.53
H      15.40      10.61      17.92
O      13.52      12.26      23.07
C      14.65      10.72      18.69
H      11.45       9.83      19.45
O      15.22      13.30      21.96
O      14.14      10.96      15.88
H      15.91      11.95      19.94
C      12.44      10.26      19.57
C      14.94      11.46      19.83
H      12.02      11.08      21.52
H      14.20      11.19      14.94
C      12.75      10.97      20.72
C      13.99      11.60      20.86
C      14.27      12.44      22.05
C      11.68       7.31      13.75
C      12.10       8.03      14.99
