28

H      13.02      10.83       9.41
H      17.58       9.41       8.48
H      16.50      10.59       9.60
H      11.51       4.70       6.28
H      15.00       4.48       6.46
N      10.54       7.81       8.13
N      17.48       7.50       7.75
H      17.04       4.52       6.98
H      10.98      10.76       8.98
O      15.59      10.90       9.43
O      12.43       4.41       6.43
H      10.44       5.91       7.37
C      11.13       6.71       7.63
C      16.88       8.60       8.22
C      11.26       8.87       8.52
O      10.53       9.88       9.00
O      17.49       5.40       6.94
C      12.68       8.87       8.47
C      16.76       6.43       7.37
C      15.34       6.44       7.40
C      13.30       7.70       7.95
C      14.71       7.62       7.90
C      12.51       6.60       7.49
C      15.50       8.71       8.36
C      13.48       9.95       8.96
C      14.54       5.37       6.90
C      14.85       9.86       8.92
C      13.17       5.45       6.94
