38

C      -0.22      12.93      12.40
C       1.27      11.62      14.18
C       1.97      12.92      13.73
H       0.33       9.91      13.19
C      -2.19      14.48      11.57
C      -0.11      12.01      14.75
H       1.92      10.34      12.53
H       1.50      14.20      12.01
H       2.86      12.66      13.14
H      -1.50      13.52      14.03
H      -0.62      11.13      15.18
C      -0.50      14.20      10.17
H       0.02      12.77      15.54
H       0.60      14.61      13.47
C      -1.00      13.76      11.41
H      -2.93      14.45      12.37
C       3.33      10.20      14.90
H       2.31      13.47      14.61
C       1.97      10.64      16.55
N      -2.37      15.30      10.50
H       0.39      13.88       9.65
N      -1.33      15.12       9.65
H       3.86      10.11      13.95
N       3.81       9.62      16.02
N       2.95       9.88      17.06
H      -1.15      11.37      10.54
H      -1.88      11.12      12.66
H       0.29      11.47      16.91
O      -0.74      10.81      11.24
O      -2.16      11.71      13.39
H       1.33      11.16      10.17
O       0.99      11.04      17.43
O       1.25      11.93      10.76
C       2.12      10.87      15.17
C       0.33      11.60      11.80
C       0.98      10.76      12.92
C       1.00      13.77      12.89
C      -1.05      12.58      13.66
