40

H       1.79      -5.12      23.16
H       2.15      -9.40      23.16
H       2.15      -5.12      18.79
H       1.80      -9.41      18.79
H       2.81      -4.36      26.12
H       1.22      -4.79      26.75
H       1.36      -3.95      25.18
H       1.14     -10.16      26.12
H       2.74      -9.73      26.75
H       2.59     -10.57      25.18
H       1.14      -4.36      15.82
H       2.73      -4.79      15.20
H       2.58      -3.95      16.77
H       2.81     -10.16      15.82
H       1.21      -9.73      15.20
H       1.36     -10.57      16.77
C       1.97      -7.26      14.66
C       1.98      -7.26      27.29
C       1.98      -7.26      25.80
C       1.90      -6.03      25.10
C       1.88      -6.05      23.71
C       1.97      -7.26      23.00
C       2.07      -8.47      23.71
C       2.05      -8.49      25.10
C       1.97      -7.26      21.58
C       1.97      -7.26      20.36
C       1.97      -7.26      18.95
C       2.06      -6.05      18.24
C       2.05      -6.03      16.84
C       1.97      -7.26      16.15
C       1.89      -8.49      16.84
C       1.88      -8.47      18.24
C       1.81      -4.72      25.83
C       2.14      -9.81      25.83
C       2.13      -4.72      16.12
C       1.81      -9.81      16.12
O       1.04      -6.62      14.06
O       2.90      -7.90      14.06
O       1.05      -7.90      27.89
O       2.90      -6.62      27.89
