16

O      12.77      10.12      15.74
C      13.50      13.75      13.82
C      14.11      16.19      13.96
H      13.61      13.83      12.73
O      13.98      16.30      12.71
C      13.70      14.90      14.60
H      13.72      15.72      16.59
C      13.55      14.83      16.00
H      13.11      13.56      17.68
C      13.21      13.62      16.60
H      13.07      11.62      13.84
O      14.58      17.10      14.72
C      13.05      12.47      15.82
C      12.79      11.15      16.48
C      13.19      12.54      14.43
O      12.64      11.14      17.76
