20

C      12.83       4.42      19.18
C      15.06       5.83      19.94
C      13.02       2.52      20.12
C      11.95       3.19      19.17
H      15.94       6.40      20.24
H      13.54       1.65      19.70
H      12.67       2.26      21.12
H      10.95       3.33      19.60
H      11.83       2.71      18.18
Br      14.52       8.21      18.58
C      11.86       6.25      17.79
O      10.92       5.42      17.53
O      11.95       7.45      17.37
C      15.96       3.93      21.31
O      16.96       4.67      21.60
O      15.77       2.73      21.69
C      14.92       4.52      20.42
C      12.94       5.73      18.68
C      13.78       3.83      20.02
C      14.11       6.42      19.10
