28

O       3.88      12.64      16.68
O       3.96      15.27      16.58
H       5.34      17.31      15.53
H       8.33      17.14      12.72
O       9.40      14.91      11.62
O       9.30      12.29      11.69
H       8.05      10.23      12.89
H       5.01      10.41      15.64
H       3.87      11.67      16.58
H       3.90      16.20      16.29
H       9.17      11.33      11.79
H       9.32      15.88      11.63
C       5.94      16.64      14.92
C       5.81      15.24      14.97
C       4.85      14.58      15.80
C       7.65      16.54      13.33
C       7.63      15.13      13.30
C       8.50      14.35      12.47
C       7.41      10.91      13.46
C       7.51      12.30      13.37
C       8.44      12.97      12.51
C       5.69      11.01      15.03
C       5.70      12.41      15.05
C       4.80      13.20      15.85
C       6.69      14.47      14.15
C       6.63      13.07      14.19
N       6.83      17.24      14.12
N       6.53      10.30      14.26
