22

O       3.16       8.34       8.93
O       3.13       6.08       8.70
O      -3.85       6.10       8.72
O      -3.88       8.36       8.93
F       0.95       5.55      10.44
F      -1.68       5.55      10.44
F      -1.70      10.80       5.45
F       1.02      10.79       5.46
H      -2.85       9.10       7.05
H       2.14       9.05       7.04
C       2.57       7.21       8.81
C      -3.29       7.23       8.82
C      -1.79       7.26       8.78
C      -1.08       8.16       7.93
C      -1.07       6.40       9.58
C      -1.76       9.06       7.06
C      -1.06       9.92       6.26
C       1.07       7.25       8.77
C       0.34       6.40       9.58
C       0.36       8.15       7.92
C       1.05       9.04       7.06
C       0.35       9.91       6.26
