30

C       9.49       8.90       3.80
C       5.59       8.82      -3.75
H       6.27       9.53       4.67
H       8.89       8.46      -4.49
C       8.15       9.68       0.39
C       7.03       9.62      -0.37
H       4.62       8.72      -4.23
H      10.42       8.56       4.25
H       6.06       9.66       0.13
H       9.12       9.62      -0.11
H      10.31       9.13       1.82
H       4.81       9.45      -1.85
H       9.11       9.18      -2.13
H       6.14      10.14       2.26
O       9.50       8.18       6.51
O       5.49       7.86      -6.41
O       7.25       8.45       6.63
O       7.75       7.94      -6.55
C       8.37       8.49       6.02
C       6.65       8.07      -5.92
C       8.34       8.96       4.59
C       6.74       8.52      -4.50
C       7.15       9.44       4.03
C       8.00       8.68      -3.90
C       7.08       9.78       2.68
C       8.11       9.09      -2.58
C       8.21       9.61       1.84
C       6.97       9.36      -1.80
C       9.42       9.23       2.45
C       5.71       9.24      -2.43
