16

H       3.25       4.58       2.41
H       7.41       4.57       2.24
H       7.40       4.56      -0.28
H       6.02       4.57      -2.41
H       1.86       4.59      -2.24
H       1.87       4.59       0.28
C       4.15       4.58       1.79
C       6.48       4.57       1.67
C       6.47       4.57       0.30
C       5.23       4.57      -0.38
C       5.12       4.57      -1.79
C       2.79       4.58      -1.67
C       2.80       4.58      -0.30
C       4.04       4.58       0.38
N       5.33       4.57       2.41
N       3.95       4.58      -2.41
