26

C       5.66      12.75       7.63
O       4.82      19.98      12.60
O       8.56      12.08       8.03
H       8.26      17.90      10.41
H       5.11      15.01       8.74
O       7.43      20.87      12.75
O       5.95      11.50       7.34
H       4.41      16.00      10.57
H       8.97      15.83      10.47
O       8.86      20.07      11.25
O       4.52      13.20       7.29
H       3.51      17.94      11.80
H       9.86      13.79       9.40
C       5.37      19.00      11.88
C       8.00      13.19       8.53
C       6.75      18.96      11.48
C       6.63      13.56       8.36
C       7.22      17.86      10.73
C       6.15      14.75       8.93
C       6.42      16.78      10.39
C       6.96      15.59       9.70
C       5.06      16.84      10.79
C       8.31      15.21       9.85
C       4.56      17.91      11.50
C       8.82      14.06       9.28
C       7.72      20.00      11.82
