20

H       9.10       1.60       9.98
H      10.89      -1.61       6.74
C      11.54       2.40       8.37
C       8.44      -2.40       8.36
C      10.01      -0.55       9.60
C       8.71       0.30       8.05
C       9.49       0.88       9.26
C      10.75       1.14       8.34
C      11.28      -0.31       8.68
C       9.96       0.54       7.12
C      10.49      -0.89       7.46
C       9.25      -1.16       8.36
Cl      10.05      -1.25      11.18
Cl       7.08       0.68       7.64
Cl      12.89      -0.75       9.10
Cl       9.90       1.19       5.52
O       8.80      -3.32       7.56
O       7.45      -2.43       9.17
O      11.17       3.32       7.58
O      12.52       2.44       9.19
