28

C       2.61      33.17      21.93
C       2.64      32.01      22.68
C       1.99      30.85      22.22
C       1.36      30.85      20.97
N       1.94      35.40      20.42
N       1.94      34.29      19.82
O       1.04      28.78      22.82
O       2.92      29.46      23.90
O       1.04      40.92      17.41
H       3.16      37.72      16.60
H       3.10      35.61      17.97
O       2.92      40.23      16.33
H       0.85      39.74      19.60
H       0.93      32.02      19.19
H       3.10      34.09      22.27
H       3.16      31.97      23.64
H       0.85      29.95      20.63
C       1.98      29.61      23.04
H       0.93      37.68      21.05
C       1.98      40.08      17.20
C       1.99      38.84      18.02
C       2.64      37.68      17.55
C       2.61      36.52      18.31
C       1.99      36.53      19.57
C       1.40      37.70      20.06
C       1.36      38.84      19.27
C       1.40      31.99      20.17
C       1.99      33.16      20.67
