27

C       5.04      14.71      21.34
O       6.46      16.03      22.77
H       2.65      12.85      19.77
C       3.77      14.07      21.13
O       4.44      15.54      23.49
H       6.62      13.88      18.41
C       3.60      13.36      19.91
H       6.99      15.14      20.52
C       4.60      13.27      18.95
O       2.73      10.16      13.54
C       5.84      13.92      19.18
O       4.56       8.97      14.13
H       6.36      11.56      17.80
O       2.78      14.10      21.99
H       1.98      11.63      15.47
C       6.04      14.63      20.34
H       2.35      13.13      17.42
C       4.39      12.46      17.74
O       6.21       9.95      15.82
C       5.40      11.62      17.27
C       5.19      10.76      16.18
C       3.95      10.79      15.49
C       2.94      11.66      15.97
C       3.15      12.47      17.07
C       3.71       9.93      14.31
H       5.83       9.36      15.09
C       5.33      15.44      22.56
