20

O      -1.25      27.15      11.04
O      -2.59      28.14      12.58
O       2.59      24.34      16.18
O       1.25      25.32      17.71
H      -2.59      28.14      14.26
H       2.59      24.33      14.49
H      -0.10      26.31      17.59
O       2.16      24.65      13.66
O      -0.74      26.78      16.99
O       0.74      25.69      11.76
O      -2.16      27.82      15.09
H       0.10      26.16      11.16
C      -1.58      27.39      12.27
C       1.58      25.08      16.49
C      -0.77      26.81      13.34
C       0.78      25.67      15.41
C      -1.12      27.06      14.70
C       1.12      25.42      14.05
C      -0.35      26.49      15.73
C       0.35      25.98      13.02
