30

O       6.80       4.71      14.87
O       6.72       4.69      17.14
O       6.74      -6.52      16.96
O       6.83      -6.50      14.69
H       6.78      -4.34      18.01
H       6.79      -4.27      13.71
H       6.77       2.53      13.83
H       6.75       2.46      18.12
F       6.75       0.39      19.56
F       6.76      -2.32      19.52
F       6.79       0.51      12.32
F       6.80      -2.20      12.27
C       6.76       4.13      16.00
C       6.79      -5.94      15.83
C       6.78      -3.77      17.08
C       6.77      -2.37      17.12
C       6.77      -1.63      18.35
C       6.79      -3.72      14.65
C       6.79      -2.32      14.66
C       6.79      -1.55      13.46
C       6.77       1.95      14.75
C       6.77       0.55      14.71
C       6.79      -0.18      13.49
C       6.76       1.91      17.18
C       6.76       0.51      17.17
C       6.76      -0.27      18.37
C       6.79      -4.44      15.86
C       6.78      -1.62      15.91
C       6.76       2.62      15.98
C       6.77      -0.20      15.93
