30

H       4.40       8.35      12.44
H       4.87       7.73       9.77
H       4.50      10.53       4.62
H       4.00      11.16       6.96
H       6.56       7.95       8.32
H       7.03       7.36       5.97
H       3.61      11.66       8.79
H       3.18      12.20      11.16
C       6.11       8.52       3.74
C       5.80       8.91       5.15
C       4.95       9.97       5.44
C       4.67      10.32       6.77
C       6.09       8.53       7.52
C       6.37       8.19       6.20
C       5.24       9.60       7.84
C       4.96       9.96       9.27
C       4.07      11.07       9.59
C       3.83      11.37      10.88
C       4.47      10.57      11.91
C       4.22      10.88      13.36
O       4.79      10.17      14.25
O       3.45      11.85      13.67
O       5.60       9.15       2.76
O       6.90       7.52       3.58
C       4.72       9.05      11.68
C       4.98       8.72      10.20
H       6.65      10.14      12.44
H       7.15       9.54       9.77
C       5.89       9.99      11.68
C       6.16       9.66      10.20
