22

C       7.16       7.94      17.31
C       8.15       8.47      18.10
H       6.94       7.84      21.22
H       7.26       7.99      16.23
O       5.26       5.54      15.09
O       5.02       7.79      15.04
O       4.55       7.71      22.05
O       4.81       5.46      22.00
C       5.10       6.67      15.64
C       4.70       6.60      21.45
F       2.98       5.47      17.05
F       2.78       5.44      19.72
F       9.09       8.92      20.24
F       9.24       9.05      17.56
C       4.81       6.66      19.96
C       5.93       7.30      19.35
C       3.86       6.06      19.17
C       6.97       7.86      20.13
C       8.06       8.42      19.51
C       5.02       6.70      17.14
C       3.96       6.07      17.76
C       6.03       7.33      17.92
