16

C      13.15      11.37      30.46
H      13.56      11.24      27.64
C      17.57       9.21      28.52
C      14.34      10.83      28.28
C      17.65       9.19      27.14
C      14.25      10.84      29.66
C      15.55      10.23      27.86
C      16.36       9.80      28.94
C      18.75       8.64      26.33
S      15.62      10.13      30.46
O      18.59       8.67      25.06
O      13.22      11.22      31.73
O      19.75       8.17      26.97
S      16.28       9.89      26.34
H      18.36       8.81      29.16
O      12.20      11.95      29.83
