34

O       0.86       5.64       7.44
O       1.37       7.73       6.71
O      -1.51      10.21      12.52
O      -2.02       8.12      13.26
H      -1.71       6.23       8.91
H       1.05       9.62      11.05
O      -3.52       9.55      10.10
O      -2.97       9.01       8.03
O       2.86       6.30       9.86
O       2.31       6.84      11.93
H       1.76       7.21       5.97
H      -2.41       8.64      13.99
C      -0.16      12.17       6.59
C      -0.49       3.69      13.38
C       0.28       7.49       8.82
C      -0.94       8.37      11.15
C      -1.09       6.98       9.38
C       0.43       8.87      10.58
C      -0.53       4.78      12.44
C      -0.12      11.07       7.52
C       0.87       7.41      10.27
C      -1.52       8.44       9.70
C      -0.51       6.86      10.85
C      -0.14       8.99       9.12
C      -0.59       5.75      11.70
C      -0.06      10.10       8.26
C       0.87       6.84       7.60
C      -1.52       9.01      12.37
N      -2.77       9.04       9.25
N       2.12       6.81      10.71
O       0.96      12.52       6.11
O      -1.61       3.33      13.85
O      -1.32      12.64       6.33
O       0.66       3.22      13.64
