32

H      11.16       8.41      13.80
H       7.40       8.60      24.66
H      11.31       8.00      16.26
H       7.30       8.03      22.22
H       7.01       7.91      16.49
H      11.59       8.17      22.02
H       6.87       8.32      14.02
H      11.68       8.73      24.46
C       8.93       8.57      12.27
C       9.60       8.99      26.17
C      10.26       8.30      14.40
C       8.31       8.51      24.06
C      10.34       8.08      15.77
C       8.25       8.19      22.71
C       9.17       7.92      16.53
C       9.44       8.07      21.97
C       7.91       8.02      15.90
C      10.68       8.27      22.60
C       7.84       8.25      14.53
C      10.73       8.59      23.95
C       9.01       8.38      13.76
C       9.55       8.71      24.69
C       9.38       7.74      20.54
C       9.25       7.68      17.97
N       8.11       7.45      18.67
N      10.54       7.58      19.86
N       8.18       7.48      19.98
N      10.47       7.55      18.54
O      10.04       8.72      11.66
O       8.49       9.13      26.77
O       7.78       8.56      11.74
O      10.76       9.04      26.70
