16

C       9.59       6.33      37.69
S      11.88       6.33      39.20
C      17.14       6.30      37.83
S      14.85       6.26      36.25
O       9.05       6.35      38.84
O       8.99       6.31      36.56
O      17.70       6.28      36.67
O      17.72       6.33      38.95
C      11.96       6.29      36.61
C      14.76       6.30      38.84
C      11.06       6.31      37.67
C      15.66       6.28      37.80
C      13.41       6.30      38.42
C      13.31       6.28      37.02
F      11.60       6.27      35.31
F      15.09       6.31      40.15
