35

C      16.29       1.68       1.84
C      15.38       2.71       2.46
C      15.82       3.27       3.82
C      15.20       4.67       4.10
C      13.68       4.65       3.83
C      12.94       3.65       4.75
C      11.92       4.31       5.65
C      15.88       5.65       3.11
C      15.44       5.15       5.54
C      16.11       4.40       6.51
C      16.29       4.91       7.81
C      15.82       6.17       8.15
C      15.15       6.93       7.18
C      14.97       6.43       5.90
H      15.27       3.51       1.71
H      14.38       2.24       2.52
H      16.91       3.32       3.86
H      15.52       2.57       4.61
N      17.10       6.14       3.51
H      13.51       4.41       2.77
H      13.26       5.65       3.96
H      12.38       2.92       4.14
H      13.63       3.08       5.38
H      17.44       6.96       3.01
H      17.41       6.02       4.47
H      16.50       3.41       6.27
H      16.81       4.30       8.55
H      14.77       7.92       7.43
H      14.44       7.03       5.15
H      15.96       6.56       9.15
O      17.26       1.23       2.53
O      16.00       1.35       0.64
O      11.10       5.11       5.10
O      11.97       4.00       6.89
O      15.41       5.93       2.01
