16

C      12.23       1.48       2.24
Cl      16.71       3.96       2.66
C      15.14       3.32       4.85
C      13.23       2.11       3.16
C      15.33       3.30       3.45
C      13.03       2.11       4.55
C      14.38       2.70       2.62
C      13.98       2.71       5.37
H      14.53       2.70       1.54
C      16.08       3.94       5.83
O      11.21       0.94       2.79
O      12.48       1.53       0.99
H      12.13       1.65       4.96
O      16.95       4.75       5.39
H      13.85       2.72       6.45
O      15.92       3.62       7.06
