27

H      15.27      11.84       4.22
O      12.43      16.22       5.53
O      14.67      15.95       5.80
O      14.60      15.75       2.66
H      11.57      11.97       3.96
H      15.54      14.39       3.77
H      11.49      12.66       2.34
H      15.27      12.92       1.95
H      13.75      13.68       1.45
H      14.86      13.44       5.83
H      13.71      15.90       2.27
H      11.35      14.18       4.67
C      13.93      13.17       5.30
C      13.49      14.38       4.44
C      13.51      12.19       3.01
C      14.32      13.31       2.32
C      13.53      15.63       5.33
C      14.19      11.94       4.37
C      12.09      14.07       3.88
C      13.55      10.92       2.15
C      12.07      12.67       3.27
C      14.56      14.48       3.30
Cl      11.55      15.31       2.65
Cl      12.74      12.88       6.62
Cl      13.71      10.37       5.09
O      14.71      10.48       1.84
O      12.44      10.42       1.82
