20

H       2.91      -1.23      13.70
H       1.13      -1.25      13.72
H       1.10      -1.23      11.20
H       2.88      -1.24      11.18
C       2.01      -4.36       9.51
C       2.01      -4.36      15.38
C       2.02      -4.37      13.89
C       2.00      -4.37      11.00
C       2.03      -3.19      13.14
C       2.02      -5.55      11.74
C       1.99      -3.19      11.75
C       2.00      -5.55      13.15
C       2.02      -1.68      13.24
C       1.99      -1.68      11.65
O       1.07      -3.71       8.94
O       2.96      -4.97       8.92
O       1.05      -4.97      15.97
O       2.95      -3.71      15.95
F       2.02      -6.75      11.11
F       1.99      -6.75      13.78
