20

C      16.51      10.67       3.22
C      13.68       9.93       2.44
C      17.90      10.78       3.29
C      12.30       9.88       2.32
H      15.97      10.21       4.04
H      14.22       9.08       2.86
C      17.97      11.85       1.22
C      12.23      11.99       1.38
H      18.47      10.41       4.14
H      11.72       9.01       2.64
C      16.59      11.79       1.09
C      13.61      12.12       1.44
H      18.60      12.27       0.45
H      11.60      12.80       1.00
C      15.83      11.18       2.10
C      14.36      11.08       2.00
H      16.12      12.19       0.19
H      14.07      13.04       1.09
N      18.61      11.36       2.30
N      11.58      10.89       1.80
