24

H      13.61      14.81      19.50
H       9.65      12.30      21.06
S      12.39      13.89      17.19
S      11.01      13.00      23.37
H      10.40      14.20      16.67
H      11.56      14.93      23.91
C       9.67      12.42      18.44
O       8.96      11.50      18.95
O       9.54      12.87      17.25
C      13.49      14.84      22.12
C      10.72      13.02      19.34
C      12.51      14.15      21.22
C      11.86      13.72      18.91
C      11.38      13.41      21.65
C      12.73      14.27      19.85
C      10.51      12.87      20.71
O      13.14      15.13      23.32
O      14.62      15.13      21.61
O      11.22      14.77      16.57
O      13.57      14.70      17.16
O      12.38      12.57      16.61
O      10.70      14.43      24.00
O       9.77      12.27      23.40
O      12.20      12.44      23.95
