35

F       0.17      14.59      32.61
C       4.80      16.42      31.86
C      -0.11      11.82      26.81
F       2.55      11.20      32.27
C       4.22      15.17      32.08
H       2.22      17.92      30.21
F       0.64      12.65      33.50
C       2.93      14.90      31.62
H       5.80      16.64      32.23
C       2.22      15.90      30.94
H       4.80      14.43      32.63
C       1.20      13.79      33.01
C       3.19      12.41      32.28
C       1.56      13.10      30.54
H      -0.32      12.40      31.38
C       0.28      12.53      30.48
H      -1.25      11.69      29.21
C       2.22      13.56      31.85
C      -0.26      12.13      29.26
H       2.37      12.90      27.23
O       5.90      18.94      31.40
H       3.30      13.66      29.39
C       0.49      12.27      28.08
C       1.78      12.81      28.14
O       0.56      11.90      25.70
C       2.30      13.22      29.36
O      -1.29      11.35      26.81
O       4.05      19.70      30.42
H       1.22      15.70      30.57
F       4.24      12.31      31.42
C       4.72      18.75      30.99
F       3.71      12.57      33.53
C       4.09      17.42      31.18
F       1.79      14.42      34.06
C       2.79      17.15      30.72
