30

O       8.29       5.93      14.05
H       5.22       0.64      13.14
H       5.55      -0.97      15.47
H       9.16       0.69      12.62
H       7.81       2.17      17.92
H       6.96      -2.44      10.15
H       9.49      -0.92      14.95
C       7.42      -5.60      14.07
C       7.17       5.32      14.01
C       7.52       0.33      15.32
C       7.19      -0.61      12.77
C       6.35      -0.60      14.82
C       8.36       0.32      13.27
C       7.40      -4.15      14.10
C       7.24       3.87      13.99
C       8.55      -0.57      14.53
C       6.17       0.29      13.56
C       7.38      -1.52      14.06
C       7.33       1.24      14.03
C       7.39      -2.94      14.09
C       7.30       2.66      14.00
C       7.70       0.70      16.74
C       7.01      -0.98      11.35
O       8.57      -6.15      14.04
O       7.85      -0.12      17.63
O       7.69       2.04      16.96
O       6.81      -0.15      10.47
O       7.09      -2.31      11.12
O       6.01       5.83      14.00
O       6.29      -6.18      14.08
