22

O      -1.92      -2.61       8.11
O      -3.30      -1.74       6.56
H       1.44       0.43       8.98
H      -0.97       4.23       7.35
H      -3.10       4.56       6.14
H      -4.55       2.60       5.60
H      -3.86       0.32       6.26
H      -0.09      -1.49       8.64
C       1.08       2.94       8.36
C      -1.60       3.38       7.10
C      -2.79       3.56       6.43
C      -3.61       2.45       6.13
C      -3.23       1.17       6.49
C      -2.01       0.94       7.18
C      -1.18       2.08       7.50
C       0.07       1.86       8.15
C       0.47       0.59       8.52
C      -0.38      -0.50       8.28
C      -1.58      -0.36       7.60
C      -2.34      -1.63       7.41
O       0.76       4.00       9.03
O       2.23       2.71       7.87
