16

C       3.50       4.75       5.71
C       5.69       4.50       7.43
C       4.49       5.73       5.72
C       4.71       3.52       7.42
H       6.55       4.42       8.09
C       5.58       5.61       6.58
C       3.60       3.64       6.56
H       4.77       2.65       8.07
O       2.68       1.62       7.37
C       2.54       2.58       6.55
O       6.46       7.66       5.81
H       2.64       4.82       5.04
O       7.62       6.51       7.40
C       6.64       6.67       6.60
H       4.42       6.60       5.07
O       1.58       2.74       5.72
