40

H       1.43      12.34      12.17
H       2.94      10.51      13.03
H       6.13      12.03      10.57
H       5.86       8.19      13.82
H       7.47       6.48      14.74
H      10.29       7.45      11.64
H       8.65       9.15      10.70
H       5.38       5.03      14.02
H       6.91       3.37      15.11
H       9.02       3.58      16.47
C       1.99      14.28      10.51
C       2.94      13.22      10.93
C       2.47      12.26      11.84
C       3.28      11.25      12.31
C       4.60      11.15      11.82
C       5.10      12.10      10.92
C       4.30      13.17      10.48
C       7.19       8.77      12.21
C       6.83       8.01      13.35
C       7.71       7.07      13.85
C       8.97       6.88      13.23
C       9.31       7.61      12.09
C       8.41       8.54      11.57
C      10.54       4.39      15.19
C       5.03       4.35      14.79
C       5.86       3.43      15.39
C       5.40       2.52      16.39
C       6.35       1.53      16.91
C      10.90       2.58      16.80
C      10.07       3.53      16.18
N       5.35      10.07      12.32
N       6.41       9.81      11.67
N       9.95       5.99      13.71
N       9.56       5.26      14.66
O       0.80      14.30      10.95
O       2.40      15.18       9.68
O       4.85      14.08       9.65
O       7.54       1.45      16.48
O       5.94       0.71      17.84
O      10.35       1.78      17.73
