16

C      22.36       9.99       2.64
C      24.80       8.21       5.89
C      23.20       9.37       3.76
C      23.67       7.53       5.35
C      24.33      10.05       4.31
O      25.30       6.45       7.45
C      22.90       8.10       4.31
O      26.63       8.26       7.45
C      25.11       9.48       5.35
Br      23.13       5.81       5.96
Br      24.88      11.77       3.69
Br      21.42       7.06       3.69
Br      26.58      10.52       5.96
O      22.70      11.13       2.21
O      21.37       9.33       2.21
C      25.64       7.59       7.01
