34

H      16.38      14.80      10.83
H      25.00      17.76      12.41
H      19.27      18.49      10.72
H      22.40      13.96      11.38
Cl      20.80      19.83       9.43
Cl      21.35      12.41       9.92
O      17.97      10.17      10.25
O      23.69      22.29      11.31
O      19.81      10.46      11.56
O      21.44      22.01      11.20
H      17.35      16.99      10.80
H      24.15      15.49      12.08
H      24.66      20.24      12.28
H      16.64      12.30      10.91
C      18.87      10.88      10.81
C      22.63      21.58      11.22
C      18.77      12.37      10.67
C      22.81      20.08      11.21
C      17.37      14.33      10.78
C      24.10      18.18      11.97
C      17.50      12.96      10.81
C      23.93      19.54      11.88
C      19.90      13.19      10.50
C      21.87      19.21      10.65
C      19.83      14.61      10.65
C      21.89      17.81      10.93
C      18.51      15.17      10.71
C      23.09      17.30      11.52
C      20.96      15.50      10.81
C      20.77      16.91      10.73
C      19.43      17.42      10.69
C      22.24      15.03      11.26
C      18.36      16.58      10.73
C      23.23      15.89      11.65
