19

C       1.43      14.29       1.69
C       2.34      13.39       1.14
C       4.62      12.55       0.67
C       5.67      14.84       2.40
C       6.16      13.95       3.53
H       3.64      16.38       3.21
H       1.21      16.08       2.88
H       0.36      14.13       1.58
H       1.99      12.55       0.54
H       6.31      14.68       1.53
H       5.82      15.88       2.75
O       4.07      11.74      -0.19
O       5.86      12.49       0.91
O       7.43      13.69       3.51
O       5.37      13.57       4.43
C       3.72      13.55       1.32
C       4.21      14.64       2.09
C       3.28      15.54       2.62
C       1.90      15.37       2.43
