31

O       6.43       8.42      14.47
O       4.39       9.26      13.92
H       6.40      13.24      20.20
H       6.18       9.84      16.87
H       6.44      11.08      18.95
H       5.80      15.38      16.52
H       5.84      13.10      10.93
H       6.07      15.34      14.58
H       5.96      15.28      12.13
H       4.32       8.43      13.39
C       5.86      10.70      11.85
C       6.32      12.03      18.42
C       6.08      14.42      18.41
C       5.87      13.13      12.02
C       5.94      14.35      12.69
C       5.99      14.38      14.07
C       5.97      13.19      14.83
C       5.91      11.92      14.15
C       6.04      13.23      16.29
C       6.19      12.01      17.01
C       6.13      10.77      16.30
C       5.92      10.72      14.95
C       5.96      14.43      17.03
C       6.29      13.22      19.11
C       5.87      11.93      12.73
C       6.03      15.70      19.18
C       5.65       9.35      14.41
O       6.98      10.14      11.59
O       4.74      10.35      11.38
O       7.15      16.20      19.52
O       4.89      16.19      19.46
