26

H      -1.24       5.68       6.35
H      -2.31       3.61       7.95
H       1.86       6.08       7.13
H       1.31       5.71       8.66
H       1.94       3.36       5.52
C      -1.14       3.34       1.46
H       0.84       1.27       7.11
N       1.60       5.33       7.76
H      -1.69       1.76       5.86
O      -1.83       4.18       0.77
O       0.64       4.98      12.24
O       1.67       3.00      12.66
C       0.96       3.80      11.95
O      -0.79       2.18       1.09
C      -1.38       3.56       7.39
C      -0.77       4.71       6.53
C      -0.78       3.71       2.80
C       0.53       3.35      10.65
C      -1.02       2.51       6.28
C      -0.40       3.68       5.40
C       0.38       2.25       6.93
C       0.03       3.28       8.07
C       1.00       3.41       6.07
C       0.65       4.45       7.19
C      -0.61       3.77       4.00
C       0.28       3.22       9.46
