46

H      13.54      -0.02       6.10
H      12.38      11.58       8.98
C      17.41       1.02       8.66
C      13.48       9.30       9.58
H       9.20       9.42       6.98
N      16.08      -0.88       7.88
H      10.98       8.42       5.69
H      16.62       5.57       9.14
N      14.97      -1.18       7.13
H      16.27       3.19       8.54
H      12.07       3.96       4.38
H      11.15       6.25       4.49
N      10.29      11.84       8.82
H      13.47       2.19       5.41
N       9.30      11.17       8.18
N      16.10       8.07       9.25
H      17.96       1.75       8.05
H      17.12       1.52       9.60
H      18.11       0.21       8.92
H      14.00       8.65      10.29
H      14.08      10.21       9.48
H      12.52       9.58      10.04
O      16.20       9.18       8.69
O      16.74       7.73      10.26
C      16.24       0.46       7.92
C      14.44      -0.02       6.71
C      15.20       1.07       7.19
C      11.45      11.18       8.58
C       9.83      10.10       7.55
C      11.22      10.04       7.80
C      11.80       8.12       6.35
C      12.12       8.94       7.45
C      13.23       8.60       8.28
C      14.00       7.46       7.94
C      13.52       6.53       6.97
C      12.42       6.89       6.14
C      15.22       7.08       8.62
C      15.72       5.80       8.58
C      15.10       4.81       7.77
C      14.05       5.21       6.89
C      13.49       4.25       6.00
C      12.46       4.68       5.10
C      11.96       5.94       5.16
C      15.50       3.47       7.82
C      14.90       2.49       7.01
C      13.93       2.91       6.08
