23

H       6.68       0.34       7.15
C       6.57      -1.26      10.88
C       7.71       0.07       9.06
H      10.07       2.86       7.69
C       9.63       1.53       9.35
C       6.78      -0.98       9.52
C       8.12       2.13       5.90
C       6.03      -1.73       8.60
H       9.00       0.05      10.80
C       8.36       1.62       7.29
C       5.61      -2.18      11.25
C       7.51       0.64       7.79
H       4.46      -3.19       8.35
H       7.16      -0.77      11.66
C       9.42       2.09       8.08
H      10.47       1.87       9.94
N       4.84      -2.84      10.35
C       8.79       0.52       9.83
O       7.16       1.69       5.22
H       6.19      -1.62       7.53
O       8.93       3.04       5.45
H       5.43      -2.43      12.30
C       5.08      -2.62       9.05
