20

H       1.15       4.08      15.71
C      -0.81       4.14      14.70
H       1.15       3.31      14.12
H      -1.23       3.31      14.13
C      -0.82       6.56      14.89
H      -1.23       4.08      15.72
C       0.73       6.56      14.89
C       0.74       4.15      14.70
C       0.73       5.52      12.70
C      -0.81       5.52      12.71
H       1.14       6.44      12.27
H      -1.23       6.44      12.28
H       1.14       4.68      12.13
H      -1.23       4.68      12.13
N       1.24       5.41      14.10
N      -1.32       5.40      14.10
H       1.15       6.47      15.90
H       1.14       7.48      14.45
H      -1.23       6.46      15.91
H      -1.24       7.47      14.45
