18

N      -0.51       4.23       9.95
H      -0.67       4.84       9.14
H      -0.45       3.24       9.78
H      -1.75       7.36      13.08
H      -0.41       2.70      12.08
H      -1.44       5.71      14.96
C      -1.19       5.99      11.54
C      -0.79       4.66      11.22
C      -0.68       3.73      12.28
C      -0.90       4.11      13.60
C      -1.28       5.43      13.92
C      -1.43       6.34      12.88
C      -1.35       7.04      10.51
C      -0.76       3.09      14.69
O      -2.07       8.06      10.80
O      -0.76       6.87       9.39
O      -0.67       1.85      14.38
O      -0.73       3.45      15.91
