30

C       9.54       8.89      27.16
C       9.57       8.89      25.76
C      10.80       8.90      25.00
C       7.12       8.89      27.17
C       7.09       8.89      25.77
C       5.86       8.89      25.02
C       8.31       8.90      20.79
C       8.32       8.90      23.62
C       8.34       8.89      27.86
C       8.33       8.90      25.04
Br       4.22       8.89      25.99
Br       4.21       8.89      22.69
H       6.18       8.90      20.92
H      10.45       8.89      20.91
H      10.47       8.88      27.73
H       6.20       8.88      27.74
Br      12.44       8.89      25.97
Br      12.43       8.90      22.66
O       7.17       8.91      18.72
O       9.44       8.91      18.71
O       9.48       8.89      29.93
C       8.31       8.91      19.29
O       7.20       8.89      29.94
C       8.34       8.89      29.36
C       7.11       8.90      21.49
C       7.08       8.90      22.89
C       5.85       8.90      23.65
C       9.52       8.90      21.48
C       9.56       8.90      22.88
C      10.79       8.90      23.63
