16

O       5.68       7.33       8.06
O       3.58      14.31       8.20
H       6.62       9.50       7.37
H       2.63      12.14       8.76
H       6.69      12.02       7.37
H       2.56       9.62       8.76
C       4.55       7.93       8.07
C       4.70      13.71       8.06
C       5.79      11.48       7.68
C       3.46      10.16       8.46
C       4.67      12.22       8.07
C       4.59       9.42       8.07
C       5.75      10.09       7.68
C       3.50      11.55       8.46
O       3.41       7.36       8.09
O       5.83      14.28       7.92
