24

H       5.37       2.65       1.34
N       5.82       0.40       2.59
H       4.10       3.32       7.11
H       2.52       2.78       6.47
H       3.94       5.41       5.72
N       2.01       5.10       5.00
O       4.37       6.16       2.64
O       4.34       4.85       0.77
O       4.55       0.46       6.62
O       5.08      -0.87       4.85
H       5.75      -0.49       3.08
H       5.98       0.39       1.59
H       1.58       5.55       5.81
H       1.39       4.35       4.69
C       4.16       2.65       4.99
C       4.75       1.46       4.52
C       5.20       1.48       3.15
C       5.03       2.65       2.38
C       4.46       3.82       2.89
C       4.80       0.28       5.38
C       4.02       3.79       4.22
C       3.33       4.58       5.32
C       3.48       3.25       6.20
C       4.37       5.03       2.03
