26

H      18.08       8.17       0.83
H      18.78      12.43       0.83
H      19.21       8.29      -1.03
H      17.65      12.32      -1.03
H      18.14       8.18       3.31
H      17.70      12.32      -3.50
H      18.72      12.43       3.31
O      18.43       9.16      -5.72
O      18.19      11.42       5.53
O      18.42      11.45      -5.72
O      18.66       9.19       5.53
H      19.15       8.28      -3.50
C      18.43      10.30       0.64
C      18.43      10.30      -5.15
C      18.43      10.30       4.95
C      18.25       9.11       1.37
C      18.01      11.44      -1.56
C      18.43      10.30      -0.83
C      18.60      11.50       1.37
C      18.84       9.17      -1.56
C      18.27       9.10       2.76
C      18.02      11.44      -2.95
C      18.59      11.50       2.76
C      18.83       9.16      -2.95
C      18.43      10.30       3.46
C      18.43      10.30      -3.66
