20

H       7.98       0.71      12.48
H       4.83      -1.01      15.61
H       7.72      -3.74      12.75
H       7.91      -1.27      12.57
H       5.13       3.44      15.38
H       4.94       0.98      15.57
N       6.57       3.40      13.90
N       6.26      -3.70      14.20
Cl       8.43       3.42      12.05
Cl       4.40      -3.73      16.06
C       7.34       2.64      13.12
C       7.31       1.24      13.15
C       5.48      -2.95      14.98
C       5.50      -1.55      14.95
C       7.11      -3.08      13.36
C       7.20      -1.70      13.27
C       5.73       2.78      14.76
C       5.63       1.40      14.85
C       6.44       0.59      14.03
C       6.38      -0.89      14.08
