34

C       1.49      13.56      12.31
C       0.03      12.65      14.16
C      -2.36      12.35      13.88
H      -2.93      14.55       5.46
C      -1.21      12.27      14.69
H       1.24      15.52       5.76
C      -1.32      11.82      16.11
H       2.48      15.14       7.73
H       1.88      13.84       8.80
H       1.54      15.52       9.21
H      -2.92      13.80       7.85
H      -3.12      12.79      11.91
H       2.29      13.44      13.05
H       1.45      14.62      12.00
H       1.76      13.00      11.40
H       0.90      12.59      14.81
H      -3.32      12.06      14.30
C      -0.91      13.57      10.69
C      -0.81      15.49       4.03
C      -0.84      15.08       5.47
C      -2.02      14.60       6.06
O      -1.91      15.40       3.38
C       0.33      15.15       6.23
C       0.37      14.75       7.57
C       1.64      14.82       8.36
C      -2.02      14.19       7.38
C      -0.84      14.27       8.15
O       0.31      15.86       3.54
C      -0.86      13.89       9.51
O      -0.23      11.57      16.73
O      -2.49      11.74      16.61
C      -1.00      13.16      12.04
C      -2.25      12.77      12.56
C       0.16      13.11      12.85
