30

C       9.23      10.27      18.37
C       6.61      13.45      14.50
H       5.42      12.85      12.68
H       6.84      14.89      16.23
H      11.20      11.20      18.95
C       9.42      11.77      16.37
C       8.73      10.95      17.21
C       8.79      12.65      15.42
C       7.58      12.42      14.81
H      10.50      11.91      16.53
H       7.65      10.85      17.05
C       7.24       8.62      18.80
C       9.45      14.00      15.27
H       6.78       8.19      19.71
H       6.51       9.32      18.36
H       7.38       7.81      18.07
N       9.24       8.98      20.22
N       4.79      14.55      13.80
H      10.52      13.84      15.04
H       9.00      14.59      14.46
H       9.41      14.59      16.20
N       5.23      15.22      14.92
C       8.53       9.29      19.12
N      10.39       9.74      20.23
C       5.60      13.51      13.52
N       7.09      11.03      14.69
O       5.91      10.80      15.00
O       7.87      10.17      14.23
C       6.32      14.57      15.33
C      10.39      10.50      19.13
