34

H       4.79       7.13       9.52
H       2.23       4.32      18.73
H       6.59       5.60      20.23
H       3.62       4.78      13.93
H      10.12       6.36      14.87
H       9.94       7.14      16.45
H      10.80       5.60      16.32
H       8.50       5.19      17.23
H       8.65       4.45      15.63
H       7.60       6.48      14.60
H       7.39       7.19      16.22
H       7.75       8.05      13.18
C       5.61       7.64      10.02
C       4.34       4.89      19.30
C       5.09       4.93      18.11
C       6.10       5.53      15.77
C       5.29       5.39      14.66
C       5.58       5.98      13.42
C       5.62       5.14      17.02
C       5.77       6.59      12.37
C       7.17       8.39      11.40
C       6.12       7.43      11.32
C       7.43       6.23      15.66
C       8.63       5.42      16.16
C       9.95       6.17      15.94
C       2.96       4.67      19.47
C       4.76       5.32      20.58
N       6.29       8.62       9.41
N       7.27       9.09      10.28
N       2.60       4.96      20.72
N       3.71       5.37      21.42
O       5.99       5.70      20.99
O       4.09       4.73      14.79
O       8.02       8.61      12.42
