18

S      15.05       3.86       5.75
S      18.04       5.42       8.24
C      18.53       7.82       6.96
C      14.75       1.35       6.86
O      19.43       7.96       7.86
O      13.90       1.19       5.92
O      16.83       2.30       8.90
O      16.28       6.97       5.07
C      16.38       3.07       7.87
C      16.71       6.21       6.12
C      15.41       2.65       6.95
C      17.72       6.61       7.00
H      17.50       2.81       9.38
H      15.59       6.47       4.61
C      16.22       4.93       6.45
C      16.85       4.38       7.57
O      15.10       0.48       7.74
O      18.28       8.64       6.01
