22

C       8.57       2.87      11.06
C       8.01       6.29      12.73
H      10.78       2.96      10.65
H       5.88       5.60      13.04
N       9.69       1.38       9.75
N       6.49       7.37      14.04
N       8.36       0.97       9.82
H       9.66       5.45      11.57
N       7.64       8.10      14.04
H       7.11       3.89      12.23
H       5.83       0.99      10.39
H       5.94       2.26      11.58
H      10.39       7.78      14.05
N       6.33       1.81      10.76
H      10.38       7.61      12.41
N       9.87       8.00      13.20
C       9.81       2.50      10.51
C       6.69       6.30      13.22
C       8.67       5.24      11.97
C       8.11       4.02      11.80
C       7.68       1.86      10.59
C       8.56       7.47      13.28
