25

C       0.88      -1.88      14.73
C       0.52      -0.82      18.86
N       4.63      -0.97      12.84
O       7.94      -2.27      12.95
H       6.60      -2.51      15.09
H       4.46      -2.42      16.42
O       6.83      -1.18      11.30
H       2.63      -0.47      13.02
O       1.56      -0.83      19.61
H       2.80      -0.98      17.40
O      -0.64      -0.44      19.23
H      -1.45      -1.58      17.19
H      -1.24      -2.19      14.77
H       0.97      -2.12      13.67
C       6.93      -1.68      12.49
C       5.72      -1.56      13.38
C       5.70      -2.07      14.68
C       4.51      -2.03      15.40
C       3.35      -1.51      14.80
C       3.48      -0.95      13.51
C       2.04      -1.55      15.46
C       1.92      -1.26      16.83
C       0.66      -1.25      17.44
C      -0.48      -1.60      16.70
C      -0.36      -1.93      15.35
