22

O      18.93       9.21       3.23
O      16.66       9.22       3.08
H      20.20       9.02      10.50
H      15.46       9.17       5.07
O      16.77       8.81      12.37
O      19.01       9.16      12.47
F      14.81       9.11       7.54
F      15.71       9.05       9.93
F      20.85       9.06       8.03
F      19.95       9.12       5.65
C      17.76       9.20       3.73
C      17.91       8.99      11.85
C      16.97       9.04       9.46
C      19.35       9.03       9.82
C      19.57       9.06       8.47
C      18.50       9.08       7.52
C      18.69       9.12       6.11
C      16.31       9.15       5.76
C      16.09       9.11       7.11
C      17.16       9.08       8.05
C      18.04       9.02      10.35
C      17.62       9.15       5.22
