19

C      16.87      11.07       4.80
C      20.07      11.98       3.34
C      16.76      12.36       5.33
C      20.18      10.71       2.82
C      18.87      12.13       4.06
C      18.08      10.96       4.08
H      20.83      12.74       3.19
C      15.88       9.95       4.96
S      18.11      13.40       4.95
S      18.83       9.68       3.20
H      15.72       9.71       6.02
H      16.23       9.05       4.43
H      14.90      10.24       4.56
C      15.68      12.91       6.14
C      21.28      10.17       2.00
O      14.70      12.13       6.42
O      15.80      14.13       6.51
O      21.17       8.95       1.64
O      22.24      10.98       1.74
