18

C      27.14      14.89      13.24
C      27.14      18.67      10.67
C      27.83      16.81      11.83
C      26.43      16.72      11.97
N      24.65      15.41      13.16
O      23.85      15.38      12.21
O      24.37      15.34      14.36
C      27.16      13.66      14.05
O      28.29      13.33      14.53
O      26.05      13.05      14.19
S      28.65      15.54      12.67
S      25.61      17.99      11.17
C      27.13      19.93       9.91
H      29.26      18.23      10.84
O      25.98      20.40       9.62
O      28.27      20.43       9.62
C      26.05      15.63      12.79
C      28.24      17.94      11.08
