12

C       3.74       4.94      23.24
C       3.64       5.08      22.03
C       3.55       5.21      20.69
C       3.50       5.28      19.46
C       4.06       4.68      24.63
C       3.45       5.32      18.12
C       3.37       5.35      16.90
O       3.52       6.54      14.91
C       3.09       5.49      15.49
O       3.75       3.53      25.08
O       4.68       5.61      25.25
O       2.36       4.58      14.97
