20

O       6.36       3.53       4.65
O       2.65       1.48      10.49
H       6.62       1.53       7.96
H       2.28       3.67       7.17
H       4.25       0.21       7.07
H       4.65       5.00       8.07
H       5.07       2.88       9.93
H       3.84       2.32       5.20
C       6.43       3.77       5.91
C       2.47       1.42       9.22
C       5.64       2.00       7.80
C       3.26       3.21       7.34
C       4.35       1.28       7.28
C       4.55       3.93       7.86
C       3.52       2.05       8.38
C       5.38       3.17       6.76
C       4.81       2.77       8.88
C       4.10       2.44       6.26
O       7.32       4.48       6.50
O       1.48       0.89       8.62
