20

H      -1.55       5.30      13.15
H      -0.23       4.06      11.46
H       1.53       8.72       9.50
H       0.13       8.46       8.42
H       0.08       9.96      11.11
H      -1.34       9.70      10.05
C      -1.30       7.24      12.23
C      -1.10       5.84      12.32
C      -0.34       5.14      11.37
C       0.33       5.82      10.33
C       0.12       7.19      10.25
C       0.47       8.44       9.47
C      -0.45       9.22      10.49
C       1.26       5.13       9.40
C      -2.03       7.97      13.30
C      -0.70       7.88      11.15
O      -2.98       8.76      12.93
O      -1.66       7.78      14.49
O       1.03       3.91       9.06
O       2.25       5.82       8.99
