16

S      18.31       8.23       3.40
S      18.60       4.16       4.37
C      18.49       3.03       1.85
O      18.53       1.95       2.53
O      18.73       9.26       7.16
O      18.43       3.14       0.58
O      18.14      10.42       5.28
F      18.66       6.43       6.85
F      18.30       5.96       0.92
C      18.55       6.81       5.56
C      18.40       5.59       2.20
C      18.44       8.12       5.13
C      18.44       9.36       5.92
C      18.41       6.52       3.26
C      18.53       5.87       4.51
C      18.50       4.27       2.63
