19

C       0.26       4.48      14.10
C       1.40       4.95      13.19
C       2.05       3.86      12.38
C       3.29       3.37      12.80
C       3.97       2.37      12.09
C       3.40       1.83      10.93
C       2.18       2.33      10.49
C       1.49       3.32      11.20
C       0.20       3.80      10.62
O       0.27       3.22      14.44
O      -0.57       5.29      14.55
O      -0.66       4.38      11.37
O       0.03       3.61       9.37
H       1.01       5.76      12.57
H       2.15       5.39      13.86
H       3.76       3.79      13.69
H       4.94       2.03      12.44
H       3.91       1.05      10.38
H       1.72       1.96       9.58
