28

N      33.19      19.34       5.45
N      33.40      19.05       6.66
H      37.42      21.24       5.17
H      35.61      20.10       6.49
H      31.00      18.21       5.62
H      29.21      17.05       6.96
H      31.67      17.31      10.48
H      33.48      18.44       9.13
H      33.12      20.00       2.99
H      34.95      21.12       1.66
O      37.15      21.99       1.28
O      38.44      22.22       3.14
O      29.51      16.38      10.87
O      28.22      16.08       9.01
C      37.38      21.87       2.53
C      36.29      21.24       3.34
C      36.48      20.96       4.70
C      35.48      20.33       5.43
C      34.27      19.99       4.80
C      32.33      18.39       7.31
C      31.13      18.00       6.68
C      30.15      17.36       7.43
C      30.34      17.12       8.80
C      31.54      17.51       9.42
C      32.53      18.13       8.67
C      29.27      16.47       9.62
C      34.07      20.28       3.45
C      35.08      20.90       2.72
