20

S      26.72      16.94      14.25
S      27.55      16.98      10.16
H      29.44      15.60      12.99
S      24.48      18.64      10.95
O      24.53      18.25      15.60
H      23.18      17.17      10.16
O      23.20      18.49      13.76
C      24.28      18.20      14.34
C      29.98      15.63      10.17
O      29.90      15.84       8.91
O      30.90      15.02      10.80
C      25.54      17.81      12.10
C      28.71      16.07      12.34
C      25.39      17.73      13.48
O      23.13      17.78      10.93
O      24.12      19.92      11.49
C      26.76      17.21      11.67
C      28.86      16.16      10.97
C      27.50      16.68      12.74
O      25.11      18.53       9.66
