30

H       2.79       9.35      14.65
H       2.74       9.35      12.15
H      -1.58       9.35      12.29
H       2.52       9.35       7.73
H      -1.90       9.35       5.45
H      -1.80       9.35       7.95
O      -1.03       9.35       3.18
O       1.24       9.35       3.05
O       1.87       9.39      16.92
O      -0.41       9.30      16.98
O      -1.78       9.33      14.84
O       2.66       9.35       5.18
H      -1.55       9.32      15.81
H       2.42       9.35       4.21
C       0.12       9.35       3.72
C       0.73       9.34      16.35
C       0.66       9.34      14.87
C       1.85       9.35      14.11
C       1.82       9.35      12.73
C       0.57       9.35      12.05
C      -0.62       9.35      12.79
C      -0.59       9.34      14.19
C       0.52       9.35      10.64
C       0.44       9.35       9.42
C       0.37       9.35       8.01
C       1.54       9.35       7.25
C       1.49       9.35       5.85
C       0.23       9.35       5.19
C      -0.94       9.35       5.97
C      -0.89       9.35       7.35
