39

F       5.19       2.46      14.72
F       5.57       0.35      15.13
F       4.19       0.93      13.52
F       2.58       3.24      14.74
F       1.30       2.23      16.21
F       1.61       1.34      14.24
C       3.44       1.22      15.81
C       4.02       1.84      17.09
C       4.70       0.99      17.96
C       5.20       1.44      19.18
C       5.04       2.79      19.53
C       4.40       3.66      18.65
C       3.89       3.19      17.44
C       5.76       0.45      20.15
C       5.28       3.28      20.92
C       2.92      -0.19      16.14
C       2.15      -0.31      17.30
C       1.69      -1.55      17.76
C       2.03      -2.72      17.05
C       2.75      -2.59      15.86
C       3.20      -1.35      15.40
C       0.78      -1.53      18.95
C       1.76      -4.10      17.55
C       4.60       1.24      14.77
C       2.23       2.02      15.24
H       4.82      -0.07      17.73
H       4.27       4.70      18.92
H       3.38       3.89      16.78
H       1.89       0.56      17.89
H       3.01      -3.50      15.31
H       3.77      -1.30      14.48
O       5.41      -0.77      20.00
O       6.51       0.89      21.08
O       6.29       3.99      21.25
O       4.35       3.04      21.77
O      -0.17      -2.37      18.98
O       0.97      -0.62      19.81
O       1.44      -4.97      16.68
O       1.95      -4.39      18.79
