10

C       4.14       7.17      10.94
C       4.09       5.78      10.32
C       5.33       5.47       9.49
N       3.81       4.78      11.35
H       3.22       5.82       9.63
H       5.21       4.51       8.98
H       5.49       6.26       8.74
H       6.22       5.41      10.13
O       3.66       7.21      12.17
O       4.54       8.19      10.35
