24

H       0.78       8.44       0.40
H       4.68       6.62       0.89
H       4.19       6.48       3.34
H       4.14       5.81      -1.24
H       1.80       9.49      -1.28
H       1.97       9.44      -3.75
N       2.30       7.30       3.17
N       3.04       7.66      -3.81
O      -0.22       7.76       4.14
O      -0.78       8.85       2.25
O       3.95       5.46      -5.18
O       5.11       4.81      -3.34
C       1.36       7.84       2.36
C       1.57       8.01       1.00
C       2.77       7.55       0.43
C       3.73       6.98       1.28
C       3.46       6.90       2.64
C       0.02       8.18       2.98
C       3.65       6.68      -3.13
C       3.65       6.65      -1.74
C       2.95       7.64      -1.03
C       2.35       8.68      -1.76
C       2.44       8.66      -3.15
C       4.30       5.55      -3.95
