34

H       5.27       1.07       6.19
H       2.15      -0.02       8.74
H       1.75      -0.08       6.43
H       3.41      -0.66       6.27
C       3.13       0.44       1.92
H       4.57       3.43       7.91
H       1.17       2.33       5.83
H       5.35       1.92       8.39
H       3.90      -0.17       8.53
C      -0.32       2.91       8.27
O       4.47       3.80      12.56
H       4.92       2.73       5.71
O       2.26       3.43      12.96
H       2.04       3.68       8.15
O       0.80       2.03       8.28
H      -0.59       3.22       7.24
H      -0.12       3.81       8.87
H       2.48       3.52       5.86
O       2.01       0.26       1.37
O       4.28       0.16       1.41
H      -1.16       2.36       8.71
C       2.01       2.63       7.81
C       3.00       0.36       8.17
C       2.79       0.16       6.65
C       3.15       0.94       3.27
C       3.18       1.86       8.47
C       2.15       2.56       6.27
C       3.16       1.46       5.88
C       4.57       1.90       6.34
C       4.51       2.34       7.82
C       3.14       1.20       4.46
C       3.20       2.17       9.89
C       3.34       3.29      12.27
C       3.25       2.56      11.04
