56

C       3.61      15.34       0.66
C       1.26      20.51       0.63
C       3.61      17.75       0.67
H       2.75      20.57       8.15
H       3.64      20.51       5.81
H       0.25      18.04       4.75
H      -0.48      18.18       7.15
H       3.05      16.56       2.37
H       5.18      20.48       3.08
C       5.43      20.02      -7.36
H       8.09      21.64       0.10
H       3.44      14.40       1.18
H       0.93      20.51       1.67
C       4.94      19.99      -6.06
C       6.83      18.61      -5.47
C       7.24      18.69      -6.79
C       5.16      19.20      -3.75
C       4.72      19.17      -2.61
C       4.25      19.17      -1.25
C       2.89      19.88      -1.05
C       5.21      19.88      -0.28
C       5.64      19.26      -5.08
C       4.27      16.56      -1.34
C       2.14      20.49      -2.04
C       0.93      21.12      -1.69
C       0.50      21.14      -0.37
C       4.05      15.35      -0.67
C       6.40      20.51      -0.62
C       4.05      17.75      -0.67
H       4.02      20.51      -5.81
H       2.48      20.48      -3.07
H       4.92      20.58      -8.15
H      -0.43      21.63      -0.10
H       4.22      14.40      -1.19
H       6.73      20.51      -1.66
H       7.41      18.04      -4.74
H       8.14      18.17      -7.14
H       4.61      16.57      -2.37
H       0.34      21.61      -2.46
N       1.11      19.38       7.72
C       4.77      19.88       1.06
C       2.24      20.02       7.36
H       7.32      21.61       2.47
C       2.72      19.99       6.06
C       0.83      18.61       5.47
C       0.42      18.69       6.79
C       2.50      19.20       3.75
C       2.94      19.17       2.62
C       3.42      19.17       1.25
N       6.55      19.38      -7.72
C       2.45      19.88       0.28
C       2.02      19.26       5.08
C       3.39      16.55       1.33
C       5.53      20.49       2.05
C       6.73      21.13       1.70
C       7.16      21.14       0.37
