14

F       8.59       6.81       7.57
C      10.43       4.83      10.46
C      10.59       6.13       8.62
C       9.18       6.15       8.57
H      11.19       6.64       7.87
C       9.05       4.88      10.40
C       8.83       4.03      11.63
C      10.41       3.98      11.73
H      10.86       4.44      12.62
F      10.94       2.70      11.59
H       8.31       4.54      12.45
H       8.37       3.06      11.44
N      11.23       5.45       9.59
N       8.38       5.55       9.45
