22

O      15.75       5.06       5.83
H      11.86       4.02       3.15
H      14.15      -0.81       3.56
H      15.02      -0.18       2.14
H      15.86       0.21       5.06
H      17.18       1.08       2.59
H      17.83       1.10       4.09
H      13.67       5.04       4.51
C      15.96       3.88       5.40
C      14.99       1.97       4.06
C      14.91       3.28       4.53
C      13.76       4.01       4.17
C      12.74       3.44       3.40
C      12.82       2.10       2.95
C      13.98       1.40       3.28
C      14.69       0.06       3.15
C      15.83       0.67       4.06
C      11.73       1.50       2.14
N      17.16       0.61       3.50
O      11.92       0.30       1.74
O      16.98       3.15       5.64
O      10.70       2.22       1.92
