29

H       2.79       9.22      11.37
H      -2.14       9.40      14.74
H      -1.14       8.15      15.52
H      -2.25       8.03      12.64
H       3.94      10.87      12.43
H      -0.58       6.01      15.29
H       0.47       6.01      13.84
H      -0.57       3.89      13.05
H       0.03       3.68      14.71
H      -1.71       3.91      14.42
C       0.95       7.35      10.76
C      -0.09       8.34      12.86
C       0.94       8.28      11.92
C       1.98       9.21      12.10
C       1.99      10.16      13.13
C       0.96      10.17      14.11
C      -0.06       9.23      13.94
C      -1.31       8.69      14.58
C      -1.43       7.73      13.31
C       0.99      10.98      15.37
C       3.04      11.20      13.02
C      -0.52       5.71      14.23
C      -0.70       4.21      14.09
O      -0.17       6.87      10.39
O       2.08       7.15      10.22
O       2.11      11.21      15.90
O      -0.15      11.29      15.84
O       2.96      12.35      13.44
O      -1.56       6.35      13.47
