18

C       6.03       3.85      17.40
C       3.66       4.10      16.90
C       4.50       1.94      17.60
O       8.08       2.10      18.22
O       7.24       4.46      17.46
H       5.11       5.68      16.76
C       5.80       2.47      17.70
O       6.66       0.34      18.27
H       1.57       2.96      16.90
O       2.81       6.21      16.21
H       7.92       3.81      17.78
C       4.95       4.63      17.00
C       3.42       2.73      17.22
C       2.53       4.99      16.51
C       6.91       1.57      18.09
O       1.34       4.53      16.51
H       4.34       0.89      17.84
O       2.18       2.19      17.16
