13

O      14.56       5.93       4.01
H      13.11       4.48       4.35
H      14.69       4.52       2.48
O      15.94       7.33       2.34
H      14.44       4.52       5.55
C      15.34       5.14       3.12
O      13.19       7.33       5.69
O      16.95       5.49       1.46
C      13.79       5.14       4.91
C      16.15       6.07       2.23
O      12.17       5.49       6.56
C      12.98       6.07       5.79
H      16.02       4.48       3.68
