10

O       1.78       5.15       4.33
O      -3.26       5.38       6.53
H      -0.75       5.46       6.62
O      -3.03       3.97       4.74
H      -0.69       3.59       4.16
O       1.76       3.44       5.84
C       1.21       4.28       5.06
C      -1.11       4.83       5.81
C      -0.28       4.20       4.96
C      -2.58       4.72       5.68
