15

N      -3.95       7.99       8.28
C      -4.29       7.29      10.72
C      -3.81       8.32       9.72
C      -4.63       9.61       9.52
H      -2.75       8.49      10.00
C      -4.89       9.13       8.08
H      -4.53       9.78       7.26
H      -4.30       7.05       8.08
C      -6.33       8.77       7.73
O      -4.12       6.07      10.37
O      -4.75       7.71      11.83
H      -4.05      10.54       9.60
H      -5.52       9.68      10.15
O      -7.21       9.01       8.62
O      -6.53       8.28       6.57
