28

O      -7.06      17.25      12.36
O      -7.06      18.57      14.22
C      -7.06       7.03      20.99
C      -7.06      17.44      13.62
F      -7.07      14.70      12.61
F      -7.07      17.48      16.54
F      -7.07      15.31      18.04
F      -7.07      12.57      14.16
F      -7.06       9.16      16.57
F      -7.07      11.90      20.45
F      -7.06       9.77      22.00
F      -7.06       6.99      18.06
C      -7.07      16.22      14.49
C      -7.07      14.92      13.94
C      -7.07      13.78      14.74
C      -7.07      13.88      16.14
C      -7.07      15.17      16.70
C      -7.07      16.30      15.90
C      -7.07      12.73      16.95
C      -7.07      11.74      17.66
C      -7.07      10.59      18.47
C      -7.06       9.30      17.91
C      -7.06       8.16      18.71
C      -7.06       8.25      20.12
C      -7.06       9.55      20.67
C      -7.06      10.69      19.87
O      -7.06       7.21      22.24
O      -7.06       5.90      20.39
