43

C       7.89      22.63      24.97
C       8.23      23.94      24.79
C       9.08      23.98      23.65
H       3.55      24.36      23.29
H       2.48      26.26      27.03
C       9.22      22.69      23.20
N       7.09      21.98      25.92
N       1.93      26.56      25.01
H      11.33      23.77      21.45
N       2.27      25.96      23.82
H       5.86      17.44      28.21
H       9.22      20.01      21.79
H       9.05      18.60      30.89
N      11.36      21.96      20.36
N      10.70      20.76      20.47
N       7.61      17.05      30.90
N       6.59      16.68      30.05
H       9.80      22.08      27.04
H      10.12      20.03      28.85
H       5.89      22.42      28.59
H       3.71      24.06      28.34
O       7.15      20.14      27.43
O       5.23      23.36      25.50
O       8.47      21.84      24.01
H       7.89      24.77      25.40
H       9.53      24.86      23.20
C       3.15      24.97      24.09
C       3.38      24.91      25.47
C       2.59      25.94      26.00
C       9.85      20.84      21.52
C       9.95      22.11      22.11
C      10.93      22.77      21.34
C       6.58      17.54      29.01
C       7.61      18.49      29.17
C       8.22      18.13      30.38
C       7.80      21.20      26.85
C       9.08      21.32      27.33
C       9.24      20.26      28.28
C       8.04      19.58      28.33
C       5.99      22.69      26.42
C       5.50      22.86      27.69
C       4.36      23.71      27.54
C       4.24      24.02      26.21
