85

H      14.32      11.80      26.63
H       9.85      16.60      18.61
H      20.70      15.14      16.06
H      14.49      15.11      17.64
H      15.02      14.27      15.47
H      12.16      13.32      25.64
H      19.96      18.76      27.10
H      19.65      10.56      23.45
H      19.28      12.91      16.36
H      18.15       9.47      22.30
C      10.05      15.70      16.12
C      18.00      20.61      25.99
C      15.80      20.32      24.38
C      15.88      21.40      25.26
C      17.04      11.82      23.85
C      16.86      10.69      24.65
C      11.84      16.33      19.36
C      10.85      16.23      18.40
C      19.51      15.69      17.76
C      20.58      15.82      16.90
C      16.35      16.29      21.64
C      22.70      16.85      16.13
C      13.16      15.93      19.11
C      11.16      15.69      17.14
C      19.37      16.54      18.89
C      21.54      16.83      17.08
C      16.17      12.94      23.99
C      15.93      10.73      25.72
C      16.81      19.35      24.30
C      16.99      21.57      26.10
C      15.12      16.25      20.83
C      16.37      15.08      22.48
C      13.46      15.39      17.85
C      17.49      16.33      20.70
C      16.43      17.45      22.54
C      14.19      16.10      20.07
C      16.64      18.31      23.37
C      16.30      14.09      23.18
C      18.34      16.41      19.85
C      17.05      22.70      27.07
C      15.93       9.75      26.86
C      12.47      15.26      16.88
C      20.33      17.55      19.05
C      21.39      17.71      18.15
C      15.14      12.88      24.96
C      15.06      11.81      25.83
C      17.94      19.51      25.14
S      12.90      14.59      15.27
S      13.99      14.24      25.06
S      19.32      18.36      25.11
S      18.37      12.16      22.64
S      18.30      14.40      17.53
S      17.65       9.09      24.33
O       9.61      16.85      15.82
O      23.19      17.99      15.79
O      23.10      15.71      15.73
O       9.60      14.58      15.69
O      15.94      23.16      27.46
O      17.07       9.48      27.35
O      14.79       9.36      27.30
O      18.20      23.11      27.47
O      12.80      13.16      15.32
O      12.22      15.37      14.28
O      14.45      15.00      15.14
O      14.65      15.34      25.70
O      13.30      14.37      23.80
O      12.92      13.67      26.14
O      18.90      17.14      24.49
O      20.47      19.10      24.66
O      19.50      18.01      26.67
O      17.81      12.26      21.34
O      19.17      13.19      23.25
O      19.28      10.82      22.56
O      18.45      13.41      18.56
O      17.02      14.99      17.23
O      18.79      13.73      16.13
O      19.05       9.19      24.66
O      16.82       8.07      24.89
O      17.46       8.92      22.76
F      20.25      18.39      20.09
F      14.71      20.22      23.59
F      11.53      16.85      20.56
F      22.28      18.68      18.39
F      19.09      20.73      26.80
F      14.85      22.26      25.26
