24

C       4.19       8.08      15.82
C       0.68       8.93      16.65
C      -0.54       8.83      16.55
C      -1.95       8.82      16.53
H       4.85      10.35      18.10
H       2.34      10.46      18.20
H       4.76       7.42      15.16
C      -2.65       9.70      17.41
C      -4.04       9.69      17.39
H      -2.21       7.30      15.01
C      -4.09       8.03      15.75
C      -2.71       7.98      15.69
H      -4.62      10.35      18.04
H      -4.72       7.40      15.12
N       4.87       8.89      16.64
N      -4.73       8.87      16.58
O       2.16       7.22      14.95
O      -2.02      10.54      18.26
H       1.19       7.33      15.05
H      -1.05      10.43      18.16
C       4.22       9.72      17.47
C       2.84       9.78      17.52
C       2.09       8.94      16.67
C       2.79       8.07      15.80
