28

H      23.17       5.65      10.66
H      24.45      -0.07       5.00
H      26.59       3.64       5.01
O      21.56       5.43      12.48
H      21.04       1.93      10.65
H      22.30       1.22       8.68
O      26.04       0.15       3.16
H      25.40       4.31       7.04
O      27.18       2.12       3.15
O      20.41       3.47      12.48
H      24.63       5.95       9.19
H      23.05      -0.41       6.52
O      24.64       5.16       8.61
O      23.06       0.36       7.12
C      21.27       4.28      11.99
C      26.32       1.31       3.64
C      22.01       3.84      10.79
C      25.60       1.74       4.86
C      22.98       4.67      10.21
C      23.71       4.27       9.09
C      24.66       0.90       5.46
C      23.97       1.27       6.61
C      25.85       2.97       5.46
C      25.17       3.34       6.61
C      21.79       2.59      10.21
C      22.51       2.20       9.10
C      23.49       3.00       8.47
C      24.20       2.53       7.25
