10

C       8.99       6.39       1.36
C       8.89       4.72       2.97
C      10.37       6.37       1.41
F      10.93       3.90       3.83
N      11.02       5.52       2.24
N       8.27       5.57       2.15
H       8.43       7.06       0.71
H       8.29       4.06       3.59
H      11.00       7.01       0.79
C      10.29       4.73       3.00
