18

S      18.12      13.38       4.92
S      18.86       9.64       3.19
H      20.84      12.72       3.20
C      15.68      12.87       6.10
C      21.31      10.15       2.01
C      16.87      11.05       4.77
C      20.08      11.95       3.34
C      16.76      12.35       5.30
C      20.21      10.67       2.82
C      18.88      12.09       4.06
C      18.10      10.92       4.07
N      15.92      10.07       4.88
H      16.19       9.11       4.73
H      15.16      10.27       5.52
O      14.69      12.07       6.35
O      15.79      14.08       6.51
O      21.21       8.93       1.64
O      22.27      10.96       1.75
