30

H       0.26      15.09       6.43
H       2.34      15.79       4.61
H       3.29      13.11       4.78
H      -1.42      14.53       4.20
H       2.20      12.91       1.57
H       2.11      10.62       1.19
H       0.98      10.40       2.55
H       2.69      10.73       2.88
H      -0.97      11.26       5.27
H      -1.94      10.28       3.32
H      -0.97      11.37       2.30
H      -2.31      12.04       3.25
C       1.13      12.24       6.81
C       1.72      14.89       4.56
C       0.55      14.53       5.53
C       1.08      13.04       5.57
C       2.25      13.41       4.62
C       1.30      13.06       3.37
C       0.14      12.69       4.37
C      -0.39      14.20       4.32
C       0.78      14.56       3.36
C       0.75      15.30       2.09
C       1.85      10.97       2.20
C      -1.50      11.29       3.26
N       1.53      12.39       2.14
N      -0.55      11.46       4.36
O       0.01      12.06       7.40
O       2.27      11.83       7.22
O       1.88      15.67       1.63
O      -0.38      15.46       1.51
