24

C       7.70      -1.88       4.81
C       8.96      -1.72       5.41
H       4.04      -8.86       5.44
C       9.70      -0.58       5.13
H       5.28      -9.75       7.48
C       8.02       0.27       3.79
H       7.46      -6.22       7.67
C       7.22      -0.83       4.01
H       9.36      -2.50       6.06
H      10.70      -0.43       5.55
H       7.69       1.09       3.14
H       6.24      -0.91       3.54
C       4.80      -8.28       5.95
N       5.07      -7.07       5.45
C       5.49      -8.76       7.07
N       6.45      -8.04       7.68
C       6.70      -6.83       7.18
N       7.20      -4.11       5.82
C       6.02      -6.32       6.06
N       5.45      -4.57       4.48
C       6.25      -5.01       5.49
N       5.88      -3.34       4.13
C       6.93      -3.10       4.95
N       9.26       0.40       4.31
