18

N      30.58      19.10      25.44
C      30.33      15.80      30.57
S      30.28      20.95      28.94
O      30.25      15.96      31.84
H      30.31      18.16      25.17
H      30.48      19.85      24.75
C      30.32      17.02      29.75
H      30.20      18.59      31.24
O      30.42      14.69      29.94
O      30.27      23.13      27.01
C      30.44      19.48      26.74
C      30.26      18.33      30.18
C      30.39      20.81      27.20
S      30.43      16.87      28.01
C      30.30      19.23      29.10
C      30.39      18.58      27.85
O      30.49      21.86      25.12
C      30.38      22.00      26.40
