27

O       8.41       1.64      14.65
O       7.17      -0.26      14.70
H       7.13       3.33      10.39
H       2.62       1.88      10.79
H       1.35       0.46      12.39
H       8.29       2.39      12.39
O       1.53      -1.32      14.37
O       1.98       0.22      15.88
O       4.68      -0.80      16.00
O       5.33       1.38      16.11
H       5.69       1.06      16.97
C       4.55       3.23       9.80
C       3.10       1.50      11.69
C       2.38       0.74      12.58
C       2.99       0.37      13.79
C       4.31       0.66      14.11
C       5.12       1.31      13.12
C       4.47       1.81      11.93
C       5.21       2.57      10.98
C       6.57       2.77      11.14
C       7.22       2.25      12.26
C       6.53       1.52      13.23
C       7.42       0.93      14.28
C       4.79       0.29      15.49
N       2.10      -0.30      14.77
O       3.62       4.07      10.05
O       5.01       2.93       8.64
