27

C       5.49       0.08      18.59
H       4.76      -4.70      17.38
O       5.19       4.05      17.28
C       6.60      -0.28      19.37
H       6.45      -2.88      17.76
O       7.28       4.51      17.98
C       7.65       0.62      19.58
O       6.71      -1.50      20.01
C       7.58       1.90      19.04
O       2.76      -5.99      17.89
C       5.74      -2.47      19.76
O       2.20      -6.03      20.09
C       4.84      -2.79      20.77
C       3.91      -3.81      20.56
C       3.88      -4.50      19.34
C       4.79      -4.15      18.33
C       5.73      -3.15      18.54
C       6.46       2.29      18.28
H       4.57       1.66      17.47
C       2.86      -5.59      19.12
H       4.68      -0.63      18.43
H       8.50       0.31      20.19
C       6.29       3.69      17.79
H       8.37       2.62      19.21
H       3.21      -4.10      21.34
H       4.87      -2.25      21.72
C       5.44       1.36      18.06
