29

H       6.28       2.37       2.69
H       6.12       0.24       3.97
H       2.29       1.43       5.52
H       2.48       3.62       4.30
H       2.07       5.60       1.68
H       1.00       5.40      -0.59
H       4.47       3.34      -2.07
H       5.55       3.51       0.17
C       5.41       2.16       3.31
C       5.32       0.97       4.03
C       4.20       0.72       4.84
C       3.15       1.65       4.89
C       3.25       2.86       4.21
C       4.38       3.11       3.43
C       3.86       4.56       1.05
C       2.58       5.10       0.86
C       2.00       5.00      -0.40
C       2.67       4.38      -1.45
C       3.95       3.84      -1.25
C       4.55       3.92       0.01
C       4.12      -0.53       5.67
C       2.02       4.36      -2.82
S       4.58       4.69       2.65
O       2.97      -0.98       5.94
O       5.22      -1.04       6.07
O       0.79       4.63      -2.89
O       2.78       4.06      -3.81
O       3.79       5.65       3.41
O       6.02       4.90       2.51
