20

O      -1.25      27.10      11.02
O      -2.59      28.08      12.56
O       2.59      24.28      16.16
O       1.25      25.27      17.70
H      -2.59      28.08      14.23
H       2.59      24.28      14.48
O      -2.16      27.77      15.07
H       0.09      26.12      11.14
O      -0.73      26.72      16.98
C      -1.58      27.34      12.25
O       0.73      25.65      11.74
H      -0.09      26.25      17.57
O       2.16      24.60      13.65
C       1.58      25.03      16.47
C      -0.78      26.75      13.32
C       0.78      25.61      15.40
C      -1.11      27.00      14.68
C       1.12      25.37      14.03
C      -0.35      26.44      15.71
C       0.35      25.93      13.00
