20

H      23.06       5.94      11.36
H      20.67       9.51      11.44
H      24.72       7.04      12.89
H      24.00      11.82      12.99
S      22.01      11.23      13.16
O      24.86      10.72      13.96
O      25.46       8.61      14.50
C      24.72       9.45      13.89
O      21.04       5.82      10.02
C      20.78       7.02      10.38
O      19.78       7.73      10.03
C      23.64       8.88      13.01
C      21.77       7.66      11.30
C      22.48       9.58      12.60
C      22.91       6.96      11.71
C      21.56       8.97      11.75
C      23.83       7.57      12.56
O      23.16      12.14      12.54
O      20.80      11.61      12.48
O      22.07      11.25      14.60
