20

C       3.16      12.21      21.45
C       3.64      11.45      20.37
C       3.68      10.07      20.47
C       2.76      10.12      22.59
C       2.71      11.50      22.58
N       3.12      16.50      21.38
N       3.25       9.40      21.55
H       4.69      16.38      20.03
H       4.80      13.91      20.04
H       1.45      13.94      22.78
H       1.53      16.39      22.72
H       3.96      11.93      19.44
H       4.03       9.46      19.64
H       2.42       9.54      23.45
H       2.33      12.03      23.46
C       3.99      15.80      20.63
C       4.03      14.41      20.62
C       3.12      13.68      21.40
C       2.20      14.42      22.16
C       2.23      15.81      22.13
