30

H       9.04       5.62      12.20
H       9.06       5.64      14.69
H      13.32       6.31      14.64
H       8.14       5.70      18.28
H      12.39       6.39      18.43
H      12.27       6.57      20.91
H      13.35       6.30      11.08
H       7.93       5.85      21.83
C      10.10       6.38      22.47
C      11.10       5.93      10.53
C      11.16       5.94      12.00
C       9.97       5.75      12.74
C       9.97       5.77      14.12
C      11.19       5.98      14.80
C      12.39       6.15      14.10
C      12.38       6.13      12.69
C       9.04       5.89      18.87
C      10.27       6.04      18.22
C      11.45       6.28      18.95
C      11.37       6.39      20.33
C      10.14       6.24      21.01
C       8.96       5.97      20.27
N      11.30       6.05      16.21
N      10.19       5.95      16.81
O      11.18       6.62      23.12
O      12.20       6.14       9.89
O       9.99       5.71       9.95
O       8.94       6.26      23.05
O      13.56       6.29      12.05
O       7.76       5.77      20.85
