60

H       1.52       2.15       5.36
H      -1.52      -2.15       5.36
H      -1.52       2.15      10.69
H       1.52      -2.15      10.69
H      -1.52      -2.15      10.69
H       1.52       2.15      10.69
H       1.52      -2.15       5.36
H      -1.52       2.15       5.36
H       2.84       2.14       3.24
H      -2.84      -2.14       3.24
H      -2.84       2.14      12.82
H       2.84      -2.14      12.82
H      -2.84      -2.14      12.82
H       2.84       2.14      12.82
H       2.84      -2.14       3.24
H      -2.84       2.14       3.24
C       1.38      -0.00       8.03
C      -1.38      -0.00       8.03
C       0.70      -0.00       6.80
C      -0.70       0.00       6.80
C      -0.70      -0.00       9.26
C       0.70      -0.00       9.26
C       1.44      -0.00       5.50
C      -1.44      -0.00       5.50
C      -1.44      -0.00      10.55
C       1.44      -0.00      10.55
C       1.80       1.21       4.89
C      -1.80      -1.21       4.89
C      -1.80       1.21      11.16
C       1.80      -1.21      11.16
C      -1.80      -1.21      11.16
C       1.80       1.21      11.16
C       1.80      -1.21       4.89
C      -1.80       1.21       4.89
C       2.54       1.21       3.71
C      -2.54      -1.21       3.71
C      -2.54       1.21      12.34
C       2.54      -1.21      12.34
C      -2.54      -1.21      12.34
C       2.54       1.21      12.34
C       2.54      -1.21       3.71
C      -2.54       1.21       3.71
C       2.93      -0.00       3.12
C      -2.93      -0.00       3.12
C      -2.93      -0.00      12.94
C       2.93      -0.00      12.94
C       3.81       0.00       1.91
C      -3.81       0.00       1.91
C      -3.81       0.00      14.14
C       3.81       0.00      14.14
Br       3.29      -0.00       8.03
Br      -3.29      -0.00       8.03
O       4.17       1.13       1.45
O      -4.17      -1.13       1.45
O      -4.17       1.13      14.60
O       4.17      -1.13      14.60
O      -4.17      -1.13      14.60
O       4.17       1.13      14.60
O       4.17      -1.13       1.45
O      -4.17       1.13       1.45
