44

C       0.98      18.86      22.18
C       6.55      21.76      32.07
H       1.72      22.23      28.39
H       5.96      18.48      25.79
C       1.04      20.85      25.33
C       6.63      19.89      28.97
H       1.92      23.54      30.48
H       5.68      17.26      23.65
N       3.56      20.91      27.20
N       4.17      19.81      27.07
O       2.88      24.42      32.40
O       4.65      16.54      21.69
H       0.48      18.07      21.60
H       1.92      19.14      21.69
H       0.33      19.74      22.27
O       5.13      24.31      32.53
H       5.90      22.14      32.86
H       7.60      21.90      32.36
H       6.37      20.68      31.92
O       2.40      16.52      21.74
O       1.22      18.37      23.51
O       6.38      22.48      30.84
O       1.54      19.60      25.85
O       6.16      21.17      28.50
H       0.73      20.74      24.28
H       5.81      19.15      28.92
H       7.02      19.97      30.00
H       7.43      19.60      28.29
H       1.82      21.62      25.42
H       0.18      21.12      25.95
C       3.53      16.87      22.20
C       4.02      24.00      31.99
C       4.00      23.11      30.79
C       3.60      17.72      23.43
C       5.13      22.43      30.27
C       2.49      18.38      24.01
C       5.03      21.68      29.08
C       2.64      19.08      25.23
C       3.78      21.59      28.41
C       3.91      19.14      25.85
C       2.67      22.29      28.92
C       4.99      18.45      25.29
C       2.78      23.02      30.09
C       4.84      17.78      24.09
