18

H      11.33       0.39       8.67
C      11.19      -0.95      13.98
O      11.50      -1.23      15.20
H      12.89      -2.15      13.26
C      12.67      -1.73      10.54
C      13.04      -3.03      10.47
C      11.89      -1.18      11.63
C      12.08      -1.50      12.93
O      14.36       0.08       9.62
S      13.14      -0.57       9.23
O      12.96      -1.18       7.93
O      10.19      -0.25      13.62
O      11.98       0.55       9.38
O      13.59      -4.85       9.09
O      14.93      -3.00       9.06
C      13.92      -3.66       9.45
H      12.64      -3.71      11.22
H      11.11      -0.46      11.40
