20

C      -4.80      10.49       7.83
H      -5.83      10.66       7.54
C       0.03       6.99       8.92
H       1.09       6.82       9.10
C      -0.58       8.26       8.83
H      -0.04       9.20       8.92
C      -4.22       9.21       7.99
H      -4.76       8.28       7.84
S      -2.33      10.92       8.45
C      -0.87       5.95       8.74
S      -2.47       6.55       8.47
C      -4.11      12.98       7.99
O      -5.29      13.40       7.75
C      -0.62       4.51       8.65
O       0.58       4.10       8.79
C      -2.87       9.28       8.34
O      -3.08      13.70       8.19
O      -1.64       3.78       8.39
C      -3.90      11.52       8.04
C      -1.94       8.19       8.56
