18

H      26.26      12.89       3.23
H      30.15      10.30       4.90
C      29.14      12.18       4.94
C      27.29      10.99       3.18
C      28.04      12.90       4.45
C      28.39      10.26       3.65
C      27.11      12.32       3.59
C      29.30      10.85       4.52
N      27.80      14.32       4.78
C      30.13      12.77       5.90
C      26.30      10.37       2.25
O      28.47      15.15       4.16
O      31.17      12.07       6.14
O      26.90      14.56       5.59
O      29.84      13.89       6.41
O      25.33      11.10       1.87
O      26.53       9.16       1.91
H      28.51       9.23       3.32
