20

S       7.07      11.31      12.01
S       4.03      14.19      11.91
H       2.41      11.54      12.23
H       2.99       9.91      12.08
H       8.69      13.95      12.28
H       8.13      15.59      12.09
N       3.13      10.91      11.92
N       7.98      14.59      11.94
C       5.58      16.49      11.94
C       5.52       9.01      12.08
O       4.45      17.09      11.94
O       6.73      17.07      11.96
O       6.64       8.40      12.13
O       4.36       8.44      12.08
C       4.43      11.32      11.98
C       6.68      14.18      11.97
C       5.54      10.46      12.02
C       5.56      15.04      11.93
C       6.25      12.82      11.99
C       4.86      12.68      11.97
