28

H       7.95       2.71       3.25
H       8.23       1.06       3.82
H       7.61       2.30       4.95
H       6.10       1.08       2.57
H       5.57       2.53       3.39
H       8.20      -0.66       4.86
H       8.55      -2.01       3.76
H       7.67      -2.30       5.28
H       6.07      -2.35       3.40
H       6.65      -0.79       2.81
H       2.90      -1.33       6.79
H       2.81       1.18       6.83
C       4.52      -2.90       5.48
C       3.59      -0.74       6.19
C       3.53       0.65       6.20
C       4.40       1.39       5.40
C       4.34       2.88       5.50
C       4.54      -1.40       5.41
C       5.33       0.75       4.54
C       5.43      -0.67       4.58
C       6.11       1.59       3.54
C       7.56       1.93       3.92
C       6.46      -1.38       3.72
C       7.80      -1.60       4.45
O       5.64      -3.52       5.52
O       5.45       3.48       5.69
O       3.38      -3.45       5.53
O       3.20       3.44       5.43
