12

C      12.85       7.67      11.13
O      13.13       9.05       1.37
O      14.28       7.09       1.45
C      13.22       7.84       3.35
C      13.54       7.99       1.96
C      13.16       7.82       4.58
C      13.14       7.82       5.92
C      13.14       7.83       7.15
C      13.13       7.83       8.50
C      13.10       7.82       9.72
O      12.11       8.56      11.68
O      13.33       6.63      11.70
