25

H       0.84      13.45      10.50
H      -2.92      11.88      11.83
H      -2.24      15.82      14.52
C      -0.93      11.46      10.08
C      -1.01      12.56      11.09
C      -0.39      16.72      13.96
C       0.83      15.65      12.13
C       0.73      16.68      13.08
C      -1.38      15.76      13.85
C      -1.28      14.69      12.94
C      -0.15      14.61      12.06
C      -0.03      13.53      11.16
C      -2.15      12.63      11.93
C      -2.27      13.66      12.85
C      -0.49      17.75      15.05
C       1.94      15.61      11.24
C      -3.41      13.72      13.70
C       1.75      17.67      13.10
N       2.86      15.53      10.52
N      -4.35      13.80      14.39
N       2.62      18.45      13.02
O       0.21      11.18       9.60
O      -2.04      10.92       9.78
O      -1.66      18.15      15.36
O       0.61      18.08      15.59
