20

H      16.98      10.77       9.31
H      20.08       7.77       9.31
H      20.07       7.75       6.82
H      17.00      10.79       6.82
C      18.53       9.27       2.58
C      18.53       9.27      13.54
C      17.67      10.13       7.37
C      19.40       8.41       7.37
C      19.41       8.42       8.75
C      17.66      10.12       8.75
C      18.53       9.27       6.65
C      18.53       9.27       9.47
C      18.53       9.27       5.24
C      18.53       9.27      10.88
C      18.53       9.27      12.10
C      18.53       9.27       4.02
O      19.68       9.26      14.12
O      17.39       9.28      14.12
O      18.53      10.41       2.01
O      18.54       8.12       2.01
