32

O       0.02      11.82      22.03
H       0.83       8.94      21.77
O       2.91      12.55      18.33
O       0.98      13.19      19.19
H       1.68       6.54      17.76
H       1.21       7.19      20.03
O       0.57      13.29      13.04
H       1.20      11.02      12.74
O       0.33      13.98      15.11
H       0.83      12.40      16.76
H       1.98       7.10      15.38
C       1.68       8.41      13.27
C       1.23       8.24      19.76
C       1.18      10.57      20.39
C       1.29      10.79      13.80
C       1.04      11.80      14.75
C       1.10      11.57      16.11
C       1.44      10.29      16.60
C       1.64       9.23      15.65
C       1.47       9.97      18.02
C       1.44       8.59      18.41
C       1.65       7.58      17.43
C       1.80       7.89      16.11
C       1.44      10.92      19.07
C       1.04       9.21      20.73
C       1.58       9.52      14.26
C       1.14      11.60      21.48
N       1.80      12.33      18.83
N       0.62      13.13      14.26
O       2.82       8.05      12.86
O       0.56       7.91      12.92
O       2.25      12.15      21.75
