26

Cl       7.91      16.08      13.31
Cl       1.55      11.67      18.04
H       6.29      14.02      13.91
H       3.22      13.70      17.47
H       3.99      10.28      13.99
H       5.30      12.36      13.93
H       5.44      17.49      17.32
H       4.19      15.38      17.45
O       8.10      18.53      14.69
O       1.27       9.26      16.59
O       6.93      19.11      16.54
O       2.49       8.66      14.77
C       7.24      18.31      15.60
C       2.15       9.48      15.69
C       6.55      16.98      15.57
C       2.87      10.79      15.74
C       6.78      15.96      14.62
C       6.07      14.76      14.68
C       2.68      11.79      16.73
C       3.42      12.97      16.69
C       3.83      11.05      14.75
C       4.57      12.23      14.72
C       5.61      16.71      16.58
C       4.91      15.51      16.64
C       5.12      14.50      15.68
C       4.37      13.23      15.70
