38

O       0.72      -7.66      21.01
H      -2.47      -6.34      19.07
H      -2.46      -4.32      17.59
H       1.61      -5.52      20.15
H       1.15      -3.00      15.99
H       1.01      -0.95      14.64
H      -2.38       0.35      16.96
H      -2.23      -1.71      18.31
H      -2.89       1.29      14.96
H      -2.96       3.36      13.56
H       1.32       3.30      13.25
H       1.41       1.25      14.66
H       1.89      -2.53      18.12
H       2.70      -3.63      19.15
C      -0.86       4.64      12.43
C      -1.59      -5.70      19.00
C      -1.58      -4.57      18.19
C      -0.46      -3.73      18.09
C       0.72      -4.07      18.81
C       0.72      -5.25      19.59
C      -0.42      -6.04      19.70
C       0.39      -2.26      16.23
C       0.31      -1.10      15.46
C      -0.68      -0.13      15.70
C      -1.61      -0.39      16.73
C      -1.53      -1.55      17.49
C      -0.53      -2.51      17.26
C      -1.96       1.73      14.60
C      -2.01       2.88      13.82
C      -0.82       3.44      13.31
C       0.40       2.84      13.63
C       0.44       1.69      14.41
C      -0.74       1.11      14.90
C      -0.41      -7.24      20.59
N       1.82      -3.24      18.83
O       0.27       5.08      12.02
O      -2.00       5.12      12.12
O      -1.54      -7.74      20.88
