13

C       6.83       6.86       2.98
C       4.92       5.93       6.00
O       6.33       6.12       4.09
C       7.74       5.93       2.19
H       6.00       7.18       2.33
H       7.39       7.75       3.31
H       6.67       7.18       5.86
H       5.27       7.75       4.87
O       4.95       4.70       5.74
O       4.22       6.52       6.88
O       7.71       4.70       2.44
O       8.45       6.52       1.31
C       5.83       6.86       5.20
