42

C       3.81      18.69       1.81
H       2.16      13.34       5.35
H       4.70      14.22       4.46
H       5.41      14.77       7.15
C       0.58      15.28       3.55
C       0.80      16.05       4.84
C       4.65      17.74       7.00
C       1.60      16.72       8.00
C       4.82      17.76       8.52
C       1.43      18.22       7.74
H       1.41      15.43       2.85
H       0.48      14.20       3.74
H      -0.34      15.62       3.04
H      -0.03      15.86       5.55
H       0.77      17.14       4.64
H       2.36      18.76       7.88
H       1.08      18.42       6.72
H       0.70      18.65       8.44
O       1.59      11.58      10.70
H       0.62      16.21       7.98
H       2.00      16.55       9.01
H       3.85      17.72       9.03
O       3.87      11.57      10.68
H       5.63      17.78       6.51
H       4.11      18.64       6.66
H       5.41      16.90       8.87
H       5.33      18.68       8.84
O       2.68      19.15       1.42
O       4.94      18.97       1.30
C       2.73      11.97      10.27
C       4.07      14.73       5.19
C       2.66      14.25       5.67
C       2.75      12.93       9.21
C       3.78      17.80       2.94
C       4.47      15.05       6.67
C       3.06      14.56       7.17
C       3.93      16.51       6.52
C       3.52      16.20       5.01
C       2.50      16.04       7.00
C       2.09      15.70       5.51
C       2.86      13.70       8.26
C       3.71      17.05       3.90
