16

C       4.89       1.47      11.10
C       5.10      -1.38      11.08
C       3.76       0.64      11.08
C       6.24      -0.56      11.11
C       3.85      -0.74      11.06
H       2.95      -1.35      11.02
O       6.22      -3.48      11.32
O       4.03      -3.44      10.73
C       6.14       0.83      11.11
O       3.76       3.57      11.24
O       6.00       3.53      10.93
H       7.04       1.44      11.10
C       5.13      -2.88      11.04
F       2.51       1.18      11.05
F       7.49      -1.09      11.11
C       4.87       2.97      11.09
