30

C       8.09      15.85       1.04
C       8.83      15.14       2.05
C      12.35      15.88       1.04
C      10.95      15.86       1.05
C      10.21      15.15       2.06
C      12.36      17.27      -0.94
C      10.96      17.28      -0.97
C      10.21      17.99      -1.98
C       6.00      16.59       0.05
C       8.81      16.57       0.04
C      13.05      16.58       0.05
C      10.23      16.57       0.04
Cl      11.08      18.84      -3.20
H       6.12      15.35       1.79
Cl      11.07      14.31       3.29
Cl       7.96      14.27       3.26
Cl       7.97      18.88      -3.18
H      12.92      15.34       1.79
H      12.93      17.82      -1.70
H       6.12      17.81      -1.70
O      15.12      17.25      -0.87
O       3.92      15.94       0.98
O      15.12      15.90       0.97
O       3.92      17.22      -0.90
C      14.55      16.58       0.05
C       4.50      16.59       0.05
C       6.69      17.28      -0.95
C       8.09      17.29      -0.97
C       8.84      18.00      -1.97
C       6.69      15.88       1.03
