38

C       2.12      11.49       5.72
C       2.25      12.88       5.83
C       1.89      13.50       7.03
H       0.86      10.95       8.83
C       2.08      14.97       7.29
H       1.54       9.69       6.78
H       2.41      10.99       4.80
C       2.31      16.25       5.27
H       2.63      13.46       5.00
C       3.12      17.13       4.53
C       2.58      17.81       3.45
H       1.11      15.47       7.39
C       1.24      17.65       3.08
H       2.60      15.08       8.26
C       0.44      16.77       3.83
H       4.16      17.28       4.83
C       0.97      16.06       4.92
H       3.19      18.48       2.86
H       0.84      18.20       2.24
C      -1.51      17.22       2.51
H       0.32      15.37       5.45
C      -1.79      18.67       2.80
H      -2.46      16.70       2.33
C      -1.56      19.24       4.05
H      -0.93      17.13       1.58
C      -1.84      20.59       4.25
C      -2.34      21.34       3.18
H      -1.15      18.63       4.86
C      -2.57      20.69       1.97
H      -1.66      21.06       5.22
H      -2.56      22.40       3.27
H      -2.98      21.22       1.11
N       1.37      12.80       8.07
N      -2.30      19.39       1.77
O       2.91      15.64       6.34
O      -0.89      16.53       3.59
C       1.26      11.47       7.96
C       1.64      10.77       6.81
