23

N       2.75      11.32       9.43
H      -2.26       6.10       8.97
O      -2.70       3.91       9.84
H       1.01       4.45      11.19
O      -1.02       2.98      11.04
H      -0.28       9.99       8.99
H       0.89      12.11       8.98
H       2.32       6.53      10.82
C       0.78       9.98       9.20
H      -0.97       8.16       8.54
C       1.48       8.81       9.53
H       4.52      10.34       9.88
H       3.49       8.09      10.00
C       1.44      11.20       9.18
C      -1.26       6.22       9.38
C       0.77       7.52       9.68
C       1.32       6.45      10.41
C      -0.53       7.37       9.15
C      -0.72       5.17      10.13
C       3.45      10.20       9.71
C      -1.51       3.92      10.38
C       2.86       8.95       9.77
C       0.58       5.29      10.63
