23

N       3.86      16.09       7.62
H       2.18      15.51       6.57
H       1.59      17.83       5.82
O      -0.45      20.74       8.79
H       5.10      19.21       7.94
O       0.54      22.18       7.35
H       5.53      16.84       8.59
H       3.76      20.54       5.78
H       2.02      20.20       5.94
H       1.80      19.57       8.67
H       3.26      20.69      10.33
H       1.55      20.88      10.76
H       2.44      22.25      10.03
C       2.79      16.36       6.84
C       2.48      17.66       6.44
C       3.30      18.72       6.83
C       4.41      18.43       7.63
C       4.66      17.11       8.00
C       2.99      20.15       6.46
C       1.92      20.67       8.64
C       0.56      21.24       8.21
C       2.32      21.16      10.03
N       2.94      21.05       7.64
