37

C       4.14      -0.85      21.36
C       4.09      -0.88      19.95
C       2.79      -1.34      19.67
C       7.02       0.06      17.23
H       4.08       4.16      15.92
H       8.08       4.16      14.26
C       6.47       2.39      16.00
C       6.70       1.33      16.55
C       9.40       0.31      18.48
C       8.32       0.19      17.92
H      11.86      -1.34      18.56
H      10.52       2.43      20.23
H       7.15      -2.08      12.47
H       7.14      -4.90      15.76
C       5.10      -0.54      19.03
C       5.96      -0.25      18.22
C       7.12      -1.95      15.44
C       7.09      -1.04      16.24
H       4.96      -0.55      22.01
H       2.32      -1.51      18.71
N       6.43       5.49      14.15
N       5.16       5.49      14.67
C       5.01       4.37      15.40
C       6.20       3.62      15.36
C       7.06       4.38      14.55
N      12.33       1.32      20.34
N      12.75       0.13      19.81
C      11.75      -0.39      19.07
C      10.64       0.47      19.11
C      11.06       1.54      19.93
N       7.15      -4.20      12.60
N       7.14      -5.09      13.65
N       2.13      -1.56      20.82
N       2.97      -1.26      21.87
C       7.15      -2.95      13.11
C       7.14      -3.02      14.52
C       7.14      -4.40      14.80
