13

C       3.11      13.25       3.67
C       1.01      13.95       2.97
O       0.81      10.39       0.70
H       0.04      12.78       1.43
C       0.93      12.92       2.04
H       3.97      11.53       2.66
N       2.08      14.11       3.78
O       3.07      10.37       0.66
H       3.94      13.41       4.36
H       0.20      14.66       3.11
C       1.96      10.84       1.01
C       2.01      12.03       1.92
C       3.12      12.22       2.74
