20

H      21.61      15.01       2.43
H      20.90      12.25       2.57
H      23.66      11.57       2.43
H      23.76      11.63       5.27
H      24.47      14.39       5.13
H      21.71      15.07       5.27
C      24.64      14.49       2.16
C      23.59      13.86       3.00
C      22.07      14.26       3.07
C      21.70      12.74       3.12
C      23.22      12.34       3.07
C      23.29      12.38       4.63
C      23.66      13.91       4.58
C      22.15      14.30       4.63
C      21.78      12.78       4.71
C      20.75      12.17       5.58
O      25.64      13.75       1.86
O      24.48      15.72       1.85
O      19.75      12.91       5.89
O      20.93      10.95       5.92
