16

O       8.89      11.70      19.13
O      13.48      14.57      23.41
O      14.70      15.33      21.63
O      10.01      12.41      17.28
C      10.89      12.95      19.42
C      12.72      14.09      21.22
C      12.02      13.65      18.95
C      11.61      13.40      21.71
C      12.92      14.22      19.85
C      10.71      12.84      20.81
C       9.85      12.30      18.54
H      11.47      13.31      22.78
H      13.79      14.76      19.48
H       9.84      12.29      21.16
C      13.71      14.71      22.16
Br      12.46      13.93      17.11
