36

C       8.73       3.48      24.54
C       8.56       2.13      22.73
C      10.54       2.32      23.83
C      11.99       2.02      23.85
C      12.49       0.99      23.04
C      13.86       0.77      22.99
C      14.26       2.51      24.48
C      12.90       2.79      24.58
C       8.08       4.39      25.51
C       6.76       4.81      25.29
C       6.16       5.65      26.21
C       8.06       5.65      27.55
C       8.74       4.83      26.66
C       7.79       1.56      21.60
C       8.45       0.76      20.66
C       7.72       0.20      19.63
N       7.97       3.03      23.53
N       9.83       1.72      22.86
N      10.03       3.17      24.73
C       6.42       1.78      21.45
H      11.82       0.39      22.44
C       5.76       1.20      20.37
N       6.40       0.41      19.48
H      12.55       3.61      25.21
H      14.30       0.01      22.35
N      14.73       1.52      23.70
H      15.01       3.10      25.01
H       6.21       4.48      24.41
H       9.77       4.54      26.86
H       8.20      -0.43      18.89
H       4.69       1.32      20.22
H       5.86       2.38      22.17
H       5.14       6.02      26.09
H       8.53       6.00      28.47
H       9.52       0.59      20.73
N       6.79       6.06      27.33
