38

H       9.99       8.18      11.63
H       6.53       7.21      18.79
H      11.50       7.88      13.61
H       5.07       7.17      16.81
H       5.18       7.41      10.96
H      11.69       8.93      17.85
H      12.24       6.92      17.06
H       3.61       7.33      15.16
C       8.66       7.83      20.22
C       7.76       7.74      10.21
C       8.19       7.58      14.50
C       8.36       7.55      15.91
C       6.90       7.39      13.91
C       9.66       7.72      16.49
C      10.62       7.84      14.25
C       5.94       7.24      16.16
C      10.80       7.74      15.61
C       5.76       7.29      14.80
C       6.79       7.35      12.50
C       9.76       7.87      17.90
C       7.89       7.71      11.71
C       8.62       7.67      18.72
C       9.14       7.95      12.27
C       7.39       7.37      18.15
C       9.32       7.82      13.66
C       7.23       7.36      16.76
C       5.60       6.79      11.78
C      11.00       8.36      18.53
C      12.18       7.45      16.08
C       4.36       7.49      14.36
O       8.64       6.76      20.88
O       7.74       8.89       9.66
O       7.70       6.61       9.63
O       8.59       9.02      20.67
O       5.23       5.64      11.98
O      11.28       8.24      19.72
O      13.20       7.68      15.44
O       4.01       7.87      13.25
