28

O      31.12      22.90      14.45
O      23.07      20.88       3.16
O      29.98      24.87      14.45
O      24.21      18.91       3.16
H      23.65      22.40       5.00
H      25.82      18.66       4.99
H      28.34      25.11      12.65
H      30.50      21.36      12.65
F      27.20      19.22       7.14
F      24.83      23.32       7.14
F      29.28      20.42      10.54
C      23.93      20.07       3.64
F      26.91      24.52      10.54
C      30.26      23.72      13.97
C      24.67      20.49       4.87
C      24.39      21.74       5.44
C      25.08      22.11       6.58
C      26.05      21.29       7.20
C      26.28      20.04       6.58
C      25.61      19.63       5.44
C      26.75      21.69       8.35
C      27.36      22.04       9.34
C      28.06      22.45      10.48
C      27.85      23.71      11.09
C      28.54      24.13      12.21
C      29.50      23.28      12.77
C      29.76      22.02      12.21
C      29.04      21.63      11.09
