16

C      18.74       9.36      20.11
C      18.64      10.83      19.88
C      17.88      11.66      20.72
C      17.79      13.02      20.45
C      19.30      11.38      18.77
C      19.21      12.74      18.51
C      18.40      15.04      19.07
C      18.46      13.57      19.35
H      17.37      11.21      21.58
O      18.02       8.83      21.03
H      19.87      10.72      18.12
O      19.54       8.73      19.34
H      17.20      13.68      21.10
H      19.72      13.18      17.65
O      17.53      15.72      19.70
O      19.24      15.48      18.22
