30

H       5.50      21.15      14.66
H       9.32      19.99      16.24
H      10.37      17.84      15.53
H      10.38      15.84      14.07
H       9.34      14.53      12.21
H       5.50      15.66      10.66
H       4.45      17.82      11.36
H       4.45      19.82      12.82
C       7.43      13.81      10.44
C       6.33      20.44      14.66
C       7.41      20.67      15.52
C       8.49      19.78      15.56
C       8.50      18.63      14.77
C       7.41      18.40      13.86
C       6.33      19.34      13.80
C       9.55      17.66      14.84
C       9.56      16.56      14.03
C       8.50      16.32      13.09
C       7.41      17.25      13.03
C       6.33      17.03      12.12
C       5.27      18.00      12.06
C       5.27      19.10      12.86
C       8.50      15.22      12.22
C       7.42      15.00      11.36
C       6.33      15.88      11.32
C       7.40      21.86      16.43
O       6.29      13.38      10.07
O       8.56      13.36      10.09
O       6.26      22.35      16.72
O       8.53      22.26      16.86
