24

H       0.94       0.76       7.93
H       2.48      -0.55       9.32
H       0.50      -4.16       8.12
H       2.25      -3.05       9.42
H      -3.32      -3.74       5.33
H      -3.09       0.79       5.34
C      -1.34      -4.47       6.22
C      -0.98       1.28       6.16
C      -1.12      -0.16       6.40
C      -0.15      -0.93       7.16
C      -2.24      -0.81       5.85
C       0.86      -0.32       7.94
C       1.72      -1.06       8.73
C      -1.31      -3.01       6.44
C      -2.33      -2.24       5.85
C      -0.26      -2.36       7.19
C       0.62      -3.09       8.03
C       1.60      -2.46       8.78
O      -2.47      -5.02       5.88
O      -2.04       1.92       5.75
O       0.13       1.88       6.30
O      -0.26      -5.14       6.34
O      -3.39      -2.75       5.20
O      -3.26      -0.20       5.24
