16

S       0.02      -0.14       2.11
H       1.91      -2.04       0.17
C       1.19      -1.35      -0.26
C       1.02      -1.20      -1.63
C       0.32      -0.49       0.44
S      -0.18      -0.03      -2.07
C      -0.48       0.30      -0.41
C      -1.18       1.05       1.69
C      -1.33       1.16       0.31
F      -2.18       2.00      -0.30
O       1.45      -1.64      -3.90
O      -1.51       1.55       3.96
C      -1.86       1.81       2.75
O      -2.72       2.67       2.38
C       1.76      -1.91      -2.69
O       2.67      -2.73      -2.31
