20

C       7.92       1.00      23.44
C       7.57      -0.34      23.46
C       6.59      -0.82      22.57
C       6.04       0.12      21.68
C       6.45       1.45      21.72
N       5.32      -4.92      22.61
N       7.38       1.90      22.59
H       6.52      -5.16      24.28
H       7.30      -2.82      24.32
H       4.87      -2.12      20.80
H       4.15      -4.48      20.96
H       8.68       1.39      24.12
H       8.08      -1.00      24.16
H       5.28      -0.16      20.96
H       6.03       2.18      21.04
C       6.18      -4.45      23.53
C       6.61      -3.13      23.55
C       6.15      -2.23      22.57
C       5.26      -2.74      21.61
C       4.86      -4.07      21.68
