18

O      19.88       8.79      29.39
C      17.71       9.15      28.64
C      14.54      10.86      28.35
C      17.87       9.16      27.25
C      14.40      10.82      29.72
O      13.38      11.20      31.79
C      15.74      10.23      27.95
S      16.53       9.92      26.46
S      15.71      10.01      30.55
C      18.90       8.55      26.38
O      19.66       7.66      26.88
O      18.90       8.97      25.17
O      12.35      11.94      29.88
C      16.48       9.73      29.04
N      18.67       8.70      29.63
C      13.29      11.36      30.52
H      13.80      11.32      27.69
O      18.18       8.30      30.71
