40

O       1.31       8.50       7.71
O      -1.19      20.18      17.99
H       2.03      18.13      16.94
H      -1.93      10.55       8.73
H       1.99      16.26      15.28
H      -1.90      12.43      10.37
H      -1.66      12.55      12.87
H       1.73      16.17      12.78
H      -3.13      17.75      14.33
H      -2.36      16.52      13.44
H       2.43      12.20      12.24
H       3.22      10.97      11.37
H      -2.12      18.88      16.18
H       2.23       9.82       9.52
H      -1.80      14.41      14.49
H       1.88      14.31      11.16
C       0.17       8.98       8.03
C      -0.06      19.69      17.67
C       1.13      17.88      16.39
C      -1.02      10.80       9.28
C       1.09      16.85      15.46
C      -1.00      11.84      10.20
C      -0.08      16.53      14.75
C       0.16      12.18      10.91
C      -1.26      17.28      15.00
C       1.35      11.43      10.68
C      -1.22      18.30      15.96
C       1.33      10.40       9.73
C      -0.05      18.61      16.65
C       0.16      10.08       9.04
C      -1.00      14.40      13.75
C       1.08      14.32      11.90
C      -0.92      13.35      12.84
C       0.99      15.36      12.81
C       0.12      13.29      11.89
C      -0.04      15.43      13.76
N      -2.44      17.01      14.33
N       2.53      11.72      11.36
O      -0.95       8.63       7.54
O       1.07      20.04      18.16
