18

C       5.17       4.03      17.50
C       5.23       8.60      17.47
C       4.51       6.41      17.50
C       5.91       6.23      17.48
S       3.66       4.91      17.54
S       6.75       7.73      17.46
N       7.59       4.41      17.50
H       3.11       8.15      17.52
O       6.33      10.68      17.45
H       8.36       5.03      17.30
H       7.73       3.41      17.42
O       4.05      10.62      17.45
O       6.28       1.95      17.47
C       5.19      10.06      17.46
O       3.99       2.01      17.49
C       5.13       2.59      17.49
C       6.31       4.86      17.48
C       4.13       7.76      17.50
