36

C      27.32      14.92      10.56
C      27.66      14.85      11.92
C      27.49      16.00      12.70
C      27.04      17.20      12.15
C      26.70      17.28      10.78
C      27.50      12.91      13.50
C      28.08      11.84      14.20
C      29.43      11.53      14.00
C      30.19      12.28      13.10
C      29.60      13.33      12.40
C      28.25      13.65      12.59
C      27.35      13.72       9.66
H      24.56      21.62       8.40
H      23.38      20.52      10.30
H      24.38      18.54      11.42
H      27.72      18.71       8.71
H      26.73      20.70       7.60
H      26.58      16.14       8.96
H      27.77      15.98      13.75
H      26.46      13.17      13.67
H      27.49      11.28      14.91
H      29.89      10.72      14.57
H      31.25      12.06      12.97
H      30.20      13.93      11.70
O      27.38      13.94       8.41
O      27.35      19.52      12.48
O      26.84      18.22      14.28
O      27.30      12.58      10.23
C      27.06      18.41      13.04
C      24.33      20.13       9.95
C      24.90      19.02      10.58
C      26.12      18.50      10.14
C      26.77      19.11       9.06
C      26.21      20.23       8.44
C      24.99      20.74       8.88
C      26.85      16.13      10.01
