16

C       1.09      -6.59      20.08
C       0.92      -5.35      19.44
N       6.47      -9.68      20.51
N       5.84     -10.60      19.71
N      -0.32      -4.88      19.68
N      -0.98      -5.79      20.46
C       2.24      -7.41      20.09
C       3.23      -8.12      20.10
C       4.59     -10.16      19.46
C       4.39      -8.92      20.11
H       3.90     -10.73      18.85
H       5.90      -7.82      21.37
C       5.62      -8.67      20.75
H       1.63      -4.79      18.84
H      -0.46      -7.66      21.32
C      -0.15      -6.82      20.71
