24

C       4.42       5.59      13.09
C       4.84       2.65      10.98
H       5.35       7.26      10.30
C       5.24       2.21       9.71
H       5.53       4.90       9.49
C       5.20       0.86       9.41
H       4.12       5.73      14.13
C       4.77      -0.05      10.38
C       4.37       0.46      11.62
H       5.58       2.93       8.96
C       4.73      -1.53      10.11
H       5.51       0.48       8.44
H       4.01      -0.20      12.41
N       4.48       4.33      12.65
N       4.40       1.77      11.91
C       4.49       8.11      12.71
O       4.45       8.95      11.78
C       4.70       6.68      12.27
O       4.33       8.32      13.96
C       5.12       6.42      10.96
O       4.25      -2.26      11.02
C       5.21       5.11      10.51
O       5.20      -1.88       8.97
C       4.85       4.07      11.38
