22

O       8.76       7.93       1.09
O       8.57       5.67       0.97
H      11.04       8.75       1.04
H      10.70       4.47       0.98
H      15.45       5.31       1.03
H      15.79       9.59       1.08
C      11.52       7.78       1.03
C      11.33       5.36       1.00
C      12.71       5.24       1.01
C      13.56       6.38       1.02
C      14.97       6.29       1.04
C      17.25       7.30       1.07
C      15.16       8.71       1.06
C       9.24       6.75       1.02
C      13.79       8.82       1.04
C      12.93       7.68       1.03
C      10.74       6.64       1.01
C      15.75       7.43       1.06
Cl      13.09      10.42       1.04
Cl      13.41       3.65       1.00
O      17.73       6.12       1.07
O      17.92       8.38       1.09
