36

C      15.93      10.82       0.00
C      16.64       9.95       0.84
C      18.03       9.94       0.83
C      16.64      11.69      -0.84
C      18.03      11.69      -0.83
C      18.74      10.82      -0.00
C      20.22      10.82       0.00
C      20.94      12.02      -0.01
C      20.94       9.61       0.01
C      27.35      10.82       0.00
C      26.64       9.95      -0.84
C      25.25       9.94      -0.83
C      26.64      11.69       0.84
C      25.25      11.69       0.83
C      24.53      10.82      -0.00
C      23.05      10.82       0.00
C      22.33       9.61      -0.01
C      22.33      12.02       0.01
H      16.08       9.28       1.50
H      18.57       9.28       1.50
H      16.08      12.36      -1.50
H      18.57      12.36      -1.50
H      20.40      12.97      -0.00
H      20.40       8.66       0.00
H      27.20       9.28      -1.50
H      24.70       9.28      -1.50
H      27.20      12.36       1.50
H      24.70      12.36       1.50
H      22.87       8.66      -0.00
H      22.87      12.97       0.00
O      29.42      11.62       0.81
O      29.42      10.02      -0.81
O      13.86      10.02       0.81
O      13.86      11.62      -0.81
C      28.84      10.82       0.00
C      14.44      10.82      -0.00
