40

H       3.23       2.77      19.54
C       3.04       0.35      20.60
H       3.43       2.20      31.09
C       3.63       4.61      30.03
H       3.67       5.25      25.10
H       3.00      -0.28      25.54
O       2.41       5.75      20.03
O       4.26      -0.79      30.60
O       4.68       5.79      20.14
O       1.99      -0.82      30.49
H       2.82       5.32      29.81
H       3.62       4.40      31.10
H       4.57       5.13      29.78
H       3.85      -0.36      20.82
H       2.10      -0.16      20.85
H       3.04       0.56      19.53
F       3.70       5.60      27.54
F       2.96      -0.63      23.09
F       3.71       5.39      23.13
F       2.96      -0.43      27.50
C       3.53       5.30      20.41
C       3.13      -0.34      30.22
C       3.19       0.91      29.38
C       3.48       4.06      21.25
C       3.47       3.32      29.27
C       3.20       1.64      21.37
C       3.37       2.15      30.00
C       3.30       2.81      20.63
C       3.13       0.84      28.01
C       3.54       4.13      22.62
C       3.26       1.96      27.16
C       3.41       3.00      23.47
C       3.43       3.23      27.84
C       3.24       1.74      22.79
C       3.26       1.89      25.70
C       3.41       3.08      24.93
C       3.56       4.31      25.62
C       3.11       0.66      25.01
C       3.56       4.36      26.98
C       3.11       0.61      23.65
