30

O      -3.81       9.37      13.62
O      -4.93      10.41      15.29
O      -8.59      11.91       9.26
O      -7.25      13.75       9.20
C      -6.65      12.78      12.03
H      -5.22       9.20      11.72
C      -5.96      12.24      13.13
O      -7.13      14.07      12.13
O      -6.44      10.09       9.53
C      -5.47      10.92      12.99
C      -7.62      12.61       9.68
C      -5.65      10.19      11.81
C      -6.34      10.75      10.74
C      -6.85      12.06      10.84
C      -4.68      10.20      14.04
H      -8.82      15.21      12.22
H      -8.83      13.79      13.32
H      -9.09      13.58      11.56
H      -3.48      12.84      14.30
H      -4.06      14.23      13.34
H      -4.02      14.32      15.12
H      -6.36      13.95      14.33
H      -5.80      12.54      15.25
H      -8.22       9.04       9.82
H      -6.73       8.14      10.27
H      -7.10       8.45       8.54
C      -8.55      14.16      12.32
C      -5.66      13.11      14.33
C      -4.22      13.66      14.27
C      -7.17       8.86       9.56
