35

H       0.28       4.84      10.45
H      -1.52       6.16       6.58
H      -1.89       6.26       4.12
H      -0.02       5.15       8.00
C       1.13       9.74       8.27
C       2.63      10.07       8.12
H       1.41       8.97      10.80
C      -0.53       7.73       2.34
H       1.62       8.71       3.69
H       2.08       8.48       6.10
C       2.87      11.40       7.40
O       0.85       5.58      12.75
O       1.94       7.57      12.77
H       2.40      11.40       6.41
H       2.45      12.24       7.96
H       3.95      11.58       7.26
H       3.09      10.09       9.12
H       3.13       9.25       7.59
H       0.62       9.87       7.30
H       0.68      10.46       8.96
O      -1.38       6.94       1.79
O      -0.05       8.77       1.76
C       0.86       6.90      10.78
C       0.43       5.82       9.99
C       0.27       6.00       8.62
C       0.50       7.24       8.00
C       0.90       8.34       8.80
C       1.08       8.14      10.17
C      -0.81       6.69       5.94
C      -1.02       6.75       4.57
C       0.95       8.13       4.32
C       1.19       8.03       5.69
C       0.30       7.33       6.53
C      -0.16       7.50       3.75
C       1.22       6.68      12.20
