22

Cl       9.19       6.47      15.68
Cl      12.30       6.83      15.68
Cl      12.09       8.28       7.94
Cl       8.93       7.92       7.99
O       7.20       8.06      13.21
O       7.22       5.82      12.87
O      14.21       6.29      13.19
O      14.12       8.53      12.80
H      13.08       7.90      10.55
H       8.13       7.35      10.61
C      12.09       7.30      13.02
C      11.36       7.46      11.81
C      11.42       7.00      14.20
C      12.00       7.77      10.58
C      11.27       7.91       9.41
C       9.28       7.00      13.05
C      10.01       6.85      14.21
C       9.94       7.31      11.82
C       9.21       7.46      10.62
C       9.86       7.75       9.43
C       7.78       6.94      13.06
C      13.60       7.39      13.01
