30

O       1.04      15.97      16.90
H       1.98      20.70      22.03
H       1.98      22.49      19.53
C       1.98      27.08      23.81
C       1.98      16.11      17.75
F       2.00      16.14      20.61
F       1.98      18.40      22.05
F       1.96      18.71      16.60
F       1.98      20.96      18.01
F       1.98      22.23      23.54
F       1.96      24.48      24.96
F       1.98      24.79      19.51
F       2.00      27.05      20.95
C       1.98      17.36      18.56
C       1.95      18.62      17.95
C       1.97      19.79      18.70
C       1.98      19.78      20.11
C       1.99      18.50      20.70
C       2.01      17.33      19.96
C       1.98      20.94      20.97
C       1.98      22.25      20.58
C       1.99      24.69      20.86
C       1.98      23.41      21.45
C       1.97      23.40      22.86
C       1.95      24.57      23.61
C       1.98      25.83      23.00
C       2.01      25.86      21.60
O       2.91      27.92      23.59
O       1.04      27.22      24.66
O       2.91      15.28      17.96
