20

H      13.72      10.11       1.93
C      14.02      10.73       2.77
H      14.78      17.06       1.93
C      14.47      16.44       2.77
H      13.51      12.61       1.86
C      13.92      12.12       2.74
H      14.98      14.56       1.86
C      14.58      15.06       2.74
C      14.30      12.85       3.87
H      15.15      12.69       5.87
C      14.19      14.32       3.87
H      13.35      14.49       5.87
H      15.32      10.19       5.74
C      14.81      12.16       4.98
C      13.69      15.02       4.98
H      13.17      16.99       5.74
C      14.91      10.77       4.91
C      13.59      16.40       4.91
N      14.51      10.07       3.83
N      13.98      17.10       3.83
