23

C       7.17       2.53       5.65
O       5.47       1.39       7.23
O       3.21       1.53       7.08
H       7.06       3.95       3.46
H       1.81       3.61       2.40
H       1.83       5.06       3.44
H       1.49       3.59       5.47
H       1.52       2.15       4.44
O       6.29       5.47       1.52
O       4.01       5.51       1.40
H       7.17       0.75       4.80
O       7.74       1.33       5.36
O       7.76       3.31       6.37
C       4.40       1.79       6.67
C       5.11       5.12       1.91
C       4.95       4.21       3.08
C       4.59       2.59       5.44
C       3.69       3.86       3.56
C       5.89       2.90       4.94
C       3.51       3.07       4.70
C       6.05       3.70       3.80
C       2.20       4.03       3.34
C       2.00       3.12       4.62
