26

O      12.73       4.77       2.10
O       9.18      12.47      -5.64
H      12.94       7.16       1.45
O       9.61      13.92      -3.95
H      10.84       8.29      -3.98
O      11.61       3.50       0.61
H      10.68      10.69      -0.40
C       9.60      12.77      -4.43
H      10.16      10.25      -5.32
H      12.42       9.19       0.11
C      10.28      10.34      -4.24
C      11.15       8.15      -1.30
H      10.53       4.78      -1.19
C      10.94       5.75      -0.91
C      10.64       6.89      -1.66
C      11.77       5.84       0.22
H      10.05      12.67      -1.79
C      12.05       4.61       1.02
C      10.81       9.34      -2.09
C      10.06      11.58      -3.63
H       9.96       6.81      -2.51
C      10.24      11.70      -2.25
C      10.65       9.24      -3.49
C      11.99       8.23      -0.17
C      12.29       7.09       0.58
C      10.60      10.59      -1.49
