38

Br      17.74       3.46       0.10
Br      14.93      -1.09       0.18
Br      18.00      -2.98       0.35
Br      20.62       5.39       2.95
H      20.51       1.36       6.05
N      21.20       3.35       6.32
N      21.24       4.47       5.53
N      17.19      -3.73      -6.13
N      17.88      -2.65      -6.62
H      16.22      -4.16      -4.30
H      19.41      -1.49      -0.99
H      20.36      -0.22       0.69
H      19.79       2.10      -0.08
H      19.26       0.71      -1.88
H      16.97      -0.34       2.06
H      18.40      -0.75      -5.85
H      16.48       1.35       1.80
H      19.31      -1.04       1.84
H      15.99       1.01      -0.48
H      17.73       1.58      -1.97
C      20.65       2.35       5.62
C      17.20      -2.14      -4.54
C      19.31      -0.44       0.93
C      18.75       1.76      -0.05
C      18.36       0.98      -1.31
C      17.13      -1.49      -3.29
C      18.54       0.88       1.20
C      18.66      -1.21      -0.24
C      17.59      -0.34      -0.95
C      16.46       0.14      -0.01
C      17.04       0.51       1.36
C      17.18      -0.96      -2.20
C      19.10       1.53       2.37
C      19.67       2.09       3.29
C      20.71       4.14       4.34
C      20.30       2.79       4.33
C      16.77      -3.43      -4.89
C      17.90      -1.69      -5.68
