39

C       5.82      20.59      17.27
C       5.37      19.35      17.74
C       5.72      18.18      17.03
C       6.44      18.31      15.84
C       6.88      19.56      15.38
C       4.46      19.37      18.92
C       5.45      16.79      17.52
C       8.24      22.16      14.73
C       5.88      22.93      15.23
F       8.83      23.38      14.68
F       9.22      21.27      15.07
F       7.82      21.85      13.48
F       6.23      24.14      14.72
F       4.96      23.14      16.22
F       5.25      22.25      14.24
H       8.49      20.83      17.69
H       7.94      25.60      18.91
H       7.05      24.80      16.77
H       5.55      21.46      17.86
H       6.71      17.41      15.30
H       7.46      19.60      14.46
O       9.09      20.11      19.95
O      10.18      21.78      21.04
O       9.96      24.88      21.23
O       8.03      23.92      21.76
O       3.51      18.53      18.96
O       4.65      20.29      19.78
O       5.14      15.92      16.65
O       5.62      16.51      18.77
C       7.10      22.13      15.78
C       7.69      22.74      17.07
C       8.37      21.88      17.93
C       8.87      22.33      19.15
C       8.71      23.68      19.51
C       8.07      24.55      18.63
C       7.56      24.09      17.42
C       9.44      21.33      20.11
C       8.96      24.16      20.90
C       6.59      20.71      16.11
