48

N      12.78      22.48      18.90
N      11.56      22.02      18.42
N      18.78      29.24       6.07
N      18.33      28.01       5.62
H      10.27      22.63      16.86
H      14.09      24.04      18.32
H      16.79      26.68       6.24
H      18.18      30.55       7.63
N       6.13      35.32      12.91
N       5.62      34.81      11.73
H       6.16      33.19      10.46
H       7.75      34.77      14.18
N       8.97      32.19      13.50
N       8.73      31.97      11.12
N       9.66      31.03      11.11
N       9.89      31.25      13.49
H      10.48      28.67      14.06
H      13.97      26.87      12.29
H      12.23      30.39      10.52
C      11.19      22.80      17.39
C      12.18      23.76      17.16
N      15.56      27.41       8.82
C      13.17      23.51      18.13
N      14.73      29.82       9.84
N      14.64      27.42       9.76
N      15.65      29.82       8.90
C      17.06      28.61       7.37
C      17.31      27.62       6.41
C      18.01      29.61       7.11
N      11.00      25.19      15.64
N      13.40      25.30      15.77
N      13.41      26.23      14.84
N      11.01      26.13      14.71
C       6.37      33.76      11.36
C       7.38      33.55      12.32
C       7.18      34.56      13.28
C      11.24      29.64      12.29
C      11.24      28.66      13.29
C      12.22      27.66      13.28
C      13.21      27.65      12.29
C      13.21      28.63      11.29
C      12.23      29.63      11.29
C       8.40      32.53      12.31
C      10.21      30.69      12.30
C      16.05      28.61       8.41
C      14.24      28.62      10.25
C      12.19      24.79      16.15
C      12.21      26.62      14.33
