13

O       5.91      14.70       1.14
C       3.51      13.29       1.20
C       2.29      12.62       1.17
H       3.96      13.56      -2.16
H       1.74      12.35      -2.07
O       5.91      14.70      -1.14
C       5.41      14.40      -0.00
C       4.14      13.63      -0.00
C       3.51      13.29      -1.20
C       2.29      12.62      -1.17
H       3.96      13.56       2.16
H       1.74      12.35       2.07
N       1.70      12.28      -0.00
