11

C       0.80       6.55      13.43
H      -1.19       7.44      13.03
N      -1.41       5.70      14.07
N       1.58       5.83      14.19
N       1.32       7.32      12.44
N       1.00       5.08      15.25
H       0.69       7.72      11.76
H       2.29       7.13      12.13
H       1.79       4.64      15.73
H       0.57       5.72      15.93
C      -0.68       6.60      13.52
