56

C      -3.37       9.86       7.49
H      -3.91      13.40       9.05
C      -2.91       8.87       6.61
C      -3.03       9.01       5.23
H      -5.29       8.50      13.38
C      -4.04      11.07       5.49
H      -0.97       8.16      13.17
C      -3.93      11.02       6.90
H      -3.04       7.26      16.81
C      -4.45      12.16       7.71
H      -1.29       7.93      11.13
C      -4.48      12.28       4.75
H      -1.35       8.64       8.79
C      -5.54      12.25       3.84
H      -5.20      10.48       9.45
C      -5.79      13.37       3.06
H      -5.07       9.88      11.82
H      -2.50       7.95       7.03
C      -4.00      14.51       3.99
C      -3.72      13.45       4.84
H      -6.16      11.36       3.74
C      -2.49       7.98       4.32
H      -6.62      13.40       2.35
H      -3.36      15.39       3.95
C      -3.02       7.78       3.04
H      -2.86      13.51       5.52
C      -2.53       6.75       2.25
H      -3.82       8.42       2.67
C      -0.94       6.20       3.85
C      -1.40       7.18       4.71
H      -2.97       6.55       1.27
N      -3.62      10.08       4.68
H      -0.07       5.59       4.09
N      -5.01      14.48       3.10
H      -0.89       7.34       5.65
N      -1.52       5.95       2.65
C      -5.54       7.86      15.98
C      -4.28       7.90      15.17
O      -6.65       7.88      15.30
C      -4.32       8.29      13.83
O      -5.50       7.80      17.23
C      -3.14       8.40      13.08
O       0.50       7.56      15.03
C      -1.92       8.07      13.70
O      -0.56       6.89      16.88
O      -5.59      12.59       7.66
C      -1.89       7.64      15.03
O      -3.49      12.68       8.52
C      -3.07       7.57      15.77
C      -0.59       7.32      15.69
C      -3.17       8.84      11.67
C      -2.13       8.52      10.78
C      -2.18       8.90       9.45
C      -3.28       9.61       8.93
C      -4.32       9.96       9.82
C      -4.25       9.59      11.16
