16

C      27.16      18.96      10.92
C      27.06      13.92      14.25
S      28.59      15.88      13.07
O      28.22      13.52      14.62
S      25.62      18.22      11.28
O      25.95      13.37      14.52
C      27.14      20.19      10.12
C      25.97      15.84      12.89
Br      30.06      18.68      11.32
C      27.05      15.14      13.43
O      28.26      20.75       9.88
C      27.80      17.12      12.18
C      26.41      16.97      12.17
C      28.24      18.26      11.47
Br      24.15      15.41      13.02
O      25.99      20.59       9.74
