28

F      -1.19      15.77       2.95
F      -5.91      16.24       2.10
F      -5.88      18.55       3.37
F      -1.23      18.10       4.20
F      -1.23      21.76       6.21
F      -5.88      22.22       5.37
F      -5.91      24.54       6.63
F      -1.19      24.08       7.48
C      -3.55      25.76       7.85
C      -3.55      14.55       1.73
C      -3.55      15.87       2.45
C      -2.37      16.41       3.02
C      -2.38      17.63       3.68
C      -3.55      18.39       3.82
C      -4.73      17.86       3.26
C      -4.73      16.64       2.59
C      -3.55      19.62       4.50
C      -3.55      20.69       5.08
C      -3.55      21.93       5.75
C      -2.38      22.46       6.32
C      -2.37      23.68       6.98
C      -3.55      24.45       7.13
C      -4.73      23.91       6.56
C      -4.73      22.69       5.89
O      -2.44      26.15       8.33
O      -4.66      26.38       7.91
O      -4.66      14.16       1.25
O      -2.44      13.94       1.66
