32

H      -0.34       5.69       2.31
H       0.88       0.91      -2.75
H      -0.02      -1.00       1.68
H       0.41      -6.71      -1.40
H      -1.07      -1.07      -2.19
H       1.93       0.99       1.11
H      -2.73       5.27      -1.27
H       3.41      -4.99       1.20
C      -1.06       5.78       1.51
C       1.27      -6.50      -0.77
C       1.70      -0.27      -0.87
C      -0.85       0.18      -0.19
C       0.67       0.49      -1.76
C       0.18      -0.56       0.70
C      -0.56       3.77       0.01
C       1.14      -3.98      -0.33
C       1.25       0.53       0.39
C      -0.40      -0.61      -1.45
C       0.22       1.33      -0.49
C       0.63      -1.41      -0.56
C      -0.09       2.70      -0.33
C       0.87      -2.80      -0.50
C      -2.29       5.57      -0.32
C       2.80      -5.63       0.57
C      -1.22       4.96       0.37
C       1.65      -5.29      -0.16
Br       3.51      -0.61      -1.37
Br      -2.67       0.54       0.29
N      -1.97       6.77       1.50
N      -2.73       6.63       0.37
N       3.10      -6.92       0.37
N       2.16      -7.46      -0.45
