27

O       0.67      10.98       1.90
H       2.16      13.27       2.00
O       1.80      16.49      -0.34
H      -0.78      12.94      -3.10
H      -2.11      13.62      -2.10
O      -0.95       9.87      -1.04
H       0.53      15.06      -2.79
H      -0.77      15.71      -1.75
O       3.15      15.54       1.22
H       1.35      11.93       3.62
H       2.60      11.10       2.66
H       1.57       8.87       3.24
H       2.01       9.77       4.71
H       0.31       9.70       4.19
C       2.15      15.51       0.40
C      -1.21      10.76      -0.15
C       0.44      14.14      -0.77
C       1.34      14.28       0.28
C       1.44      13.19       1.19
C       0.64      12.05       1.04
C      -0.27      11.92      -0.04
C      -0.32      12.98      -0.93
C      -1.02      13.50      -2.18
C      -0.17      14.82      -1.98
C       1.57      11.03       3.02
C       1.35       9.77       3.83
O      -2.23      10.78       0.60
