10

C      11.18       3.41       8.35
C      12.00       2.38       8.08
C      13.47       2.54       8.12
C       9.71       3.22       8.44
O       9.21       2.23       7.81
O      13.96       3.64       7.73
O      14.12       1.52       8.58
O       9.09       4.08       9.15
H      11.57       4.40       8.59
H      11.61       1.38       7.92
