40

C      15.95      10.01       2.45
C      15.82       8.73       3.01
C      14.67       8.34       3.68
C      13.59       9.27       3.80
C      13.72      10.58       3.24
C      14.89      10.92       2.58
C      12.41       8.90       4.48
C      11.38       8.58       5.07
C      10.19       8.21       5.75
C      10.07       6.90       6.31
C       8.89       6.56       6.97
C       7.84       7.47       7.10
C       7.96       8.75       6.54
C       9.12       9.14       5.87
H      16.65       8.03       2.90
H      15.00      11.91       2.14
H       8.78       5.57       7.41
H       7.13       9.45       6.65
C      12.61      11.60       3.34
C      14.59       6.95       4.25
C       9.20      10.53       5.30
C      11.17       5.88       6.21
O       5.66       7.96       7.87
O       6.55       5.90       8.31
H      12.96      12.50       3.87
H      11.75      11.20       3.88
H      12.28      11.91       2.34
H      14.70       6.20       3.46
H      13.63       6.78       4.75
H      15.39       6.79       4.98
H       8.40      10.69       4.57
H      10.16      10.71       4.81
O      17.24      11.58       1.24
H       9.07      11.28       6.09
O      18.13       9.53       1.68
H      11.51       5.58       7.21
H      12.03       6.27       5.66
H      10.82       4.98       5.69
C       6.59       7.08       7.81
C      17.20      10.40       1.74
