28

C       1.49       9.26      19.22
C       2.96       7.25      19.32
H       6.01       9.77      18.24
O       2.43       8.90      16.25
H       5.60       8.05      18.35
C       3.68      10.84      17.87
O       4.29       7.72      16.32
H       5.54       8.23      20.68
O       2.13       9.16      22.35
H       5.80       9.97      20.61
O       3.93       7.89      22.43
H       4.42      11.20      17.14
H       3.47      10.45      20.58
H       1.01       8.90      18.31
H       1.42      10.35      19.23
H       0.94       8.89      20.09
H       2.38       6.88      20.18
C       2.94       8.79      19.29
H       3.81      11.43      18.78
H       3.98       6.84      19.41
C       3.87       9.34      18.13
H       2.51       6.84      18.41
C       5.29       9.05      18.66
C       5.19       9.16      20.20
H       2.69      11.04      17.45
C       3.71       9.37      20.53
C       3.54       8.61      16.83
C       3.24       8.79      21.83
