10

C       4.35      17.27       3.89
O       5.19      19.07       2.46
H       5.12      17.42       4.66
C       6.14      16.87       2.22
O       7.27      17.45       2.22
H       4.03      16.22       3.88
C       4.88      17.69       2.52
H       4.12      17.43       1.76
O       6.03      15.62       2.02
H       3.49      17.91       4.15
