39

C      -0.96      17.18       8.18
C      -0.30      16.10       8.66
N       6.84      11.54      10.84
N       7.09      11.79       9.51
H       6.12      12.93       8.02
H       5.34      12.13      12.20
N      -3.04      17.83       5.24
N      -3.43      16.55       5.55
N       0.81      21.71      15.32
N      -0.56      21.62      15.40
H      -1.66      19.20       6.09
H      -2.90      15.16       7.06
H       2.29      20.72      14.17
H      -2.02      20.43      14.44
N       0.44      17.18      10.69
N       1.56      15.23       9.87
N       2.29      16.26      11.91
H      -0.71      18.89      12.27
H       2.09      18.27      13.40
H       3.61      13.92       9.02
H       3.97      14.37      12.05
H      -0.78      18.14       8.66
H      -0.34      15.13       8.15
C       6.12      12.59       9.05
C       5.22      12.90      10.09
C       5.73      12.21      11.20
C      -2.12      18.22       6.15
C      -1.87      17.17       7.05
C      -2.73      16.14       6.62
C       1.24      20.80      14.42
C       0.14      20.11      13.88
C      -0.97      20.67      14.53
C       1.31      17.17      11.72
C       0.61      16.18       9.80
C       2.39      15.33      10.94
C       0.17      19.04      12.90
C       1.23      18.22      12.73
C       4.06      13.76      10.01
C       3.51      14.40      11.06
