20

O      21.46      16.38       9.35
H      15.25      17.29      10.64
H      15.84      18.21      12.05
H      17.04      18.31       9.21
H      17.63      19.25      10.61
H      20.58      14.79      11.09
H      18.81      13.77      12.51
C      20.45      17.11       9.65
C      18.15      17.09      10.69
C      19.40      16.50      10.52
C      19.61      15.28      11.20
C      18.62      14.71      11.99
C      17.35      15.31      12.15
C      17.15      16.52      11.48
C      16.15      17.61      11.18
C      17.28      18.26      10.28
C      16.30      14.69      13.00
O      15.27      15.41      13.24
O      20.24      18.31       9.28
O      16.51      13.50      13.42
