16

C      10.91      17.77       0.00
O      11.27      12.90       1.08
C      10.91      14.98      -0.00
H       9.40      15.12      -1.53
C      10.91      13.49      -0.00
O      10.56      12.90      -1.08
H      12.43      15.12       1.53
H       9.33      17.63      -1.46
C      10.91      19.26       0.00
C      10.05      15.68      -0.86
H      12.49      17.63       1.46
C      11.77      15.68       0.86
C      10.02      17.07      -0.83
O      12.01      19.84       0.30
O       9.81      19.84      -0.30
C      11.80      17.07       0.83
