32

O       2.87      20.61       1.35
H       4.54      17.57       1.16
H       4.84      14.91       5.07
O       5.13      20.60       1.26
H       4.74      15.71       2.79
O       4.72      15.14       7.73
H       3.64      20.30       4.35
H       3.66      19.09      10.28
H       3.60      20.63       6.27
H       3.46      21.01       8.69
H       6.47      14.49       6.78
H       5.10      13.32       6.73
H       5.95      13.63       8.28
C       4.05      16.57       9.78
C       4.51      16.72       3.13
C       4.08      19.05       2.68
C       3.76      18.93       9.20
C       3.63      20.00       8.31
C       3.71      19.78       6.95
C       3.95      18.49       6.42
C       4.12      17.40       7.34
C       4.06      18.26       4.99
C       4.37      16.95       4.52
C       4.57      15.90       5.45
C       4.47      16.10       6.80
C       3.89      19.29       4.03
C       4.39      17.75       2.22
C       4.00      17.65       8.73
C       4.01      20.17       1.69
C       5.61      14.08       7.34
O       2.92      16.14      10.18
O       5.17      16.25      10.28
