32

O       3.43       5.95       9.29
O       8.06       5.11       7.01
O       8.30       6.66       5.41
O       5.85       5.35      -0.37
O       3.99       5.30      -1.61
C       4.59       5.49      -0.49
C       3.75       5.82       0.71
C       2.40       6.13       0.55
C       1.60       6.33       1.67
C       0.15       6.66       1.54
C       2.15       6.22       2.96
H       1.99       6.15      -0.47
C       3.51       5.95       3.14
H       1.48       6.37       3.81
C       4.31       5.75       1.99
H       5.38       5.55       2.06
H       2.22       5.91       5.59
C       4.11       5.91       4.50
C       3.31       5.90       5.65
H       5.67       6.03       8.10
C       3.86       5.97       6.94
H       6.18       6.05       3.82
C       5.25       5.95       7.09
C       6.07       5.96       5.95
H       0.64       7.84       0.09
H       7.31       4.64       7.43
C       5.51       5.98       4.67
C       7.55       5.97       6.08
C       2.96       6.25       8.12
O      -0.18       7.52       0.53
O      -0.72       6.23       2.28
O       1.87       6.82       7.90
