18

C      12.08       8.08      13.12
O      18.50       9.28      12.55
C      16.39       8.23      12.86
O      11.51       7.37      12.21
C      15.61       7.72      11.82
H      13.65       7.24      11.06
O      11.52       8.68      14.08
C      14.22       7.67      11.89
H      13.82       9.12      14.93
O      17.49       7.30      10.53
C      13.58       8.17      13.02
H      16.31       9.14      14.82
N      16.25       7.20      10.61
C      14.33       8.72      14.06
O      15.54       6.69       9.73
C      15.73       8.75      13.99
C      17.90       8.20      12.87
O      18.46       7.14      13.28
