16

O      10.92       5.46       7.24
O      10.92       5.34      14.17
H      14.21       5.35      11.96
H      14.21       5.45       9.45
H       9.91       5.45       9.45
H       9.91       5.35      11.96
C      13.27       5.37      11.40
C      13.27       5.42      10.01
C      10.85       5.43      10.01
C      10.85       5.37      11.40
C      12.06       5.35      12.11
C      12.06       5.33      13.60
C      12.06       5.45       9.31
C      12.06       5.47       7.82
O      13.20       5.34      14.17
O      13.20       5.46       7.24
