20

H       2.49       4.33       9.56
H       2.31       4.19      12.04
H       6.86       6.92      12.50
H       7.52       5.26      12.53
H       7.11       6.99      10.02
H       7.74       5.31      10.03
C       4.57       5.24       8.06
C       3.23       4.56      11.58
C       4.28       4.96      12.42
C       5.44       5.39      11.78
C       6.83       5.94      12.01
C       6.97       5.98      10.44
C       4.19       4.94      13.91
C       5.56       5.44      10.39
C       4.50       5.10       9.55
C       3.33       4.64      10.19
O       5.70       5.05       7.50
O       3.49       5.56       7.47
O       5.21       5.38      14.54
O       3.12       4.50      14.46
