40

C      -1.34      -2.88      23.97
C      -2.49      -5.06      29.68
C      -1.71      -3.60      22.83
C      -2.89      -3.74      30.29
C      -1.87      -4.99      22.90
C      -3.83      -3.79      31.32
C      -1.67      -5.65      24.11
C      -4.22      -2.62      31.99
C      -1.29      -4.93      25.25
C      -3.66      -1.39      31.63
C      -2.28      -5.77      21.70
C      -2.71      -1.35      30.61
C      -0.98      -5.68      26.50
H      -4.28      -4.74      31.60
C      -2.31      -2.51      29.92
H      -3.96      -0.48      32.16
O      -3.41      -5.82      29.27
C      -5.19      -2.73      33.11
O      -1.24      -5.34      29.66
H      -2.29      -0.39      30.31
C      -1.36      -2.39      28.79
O      -5.34      -3.86      33.67
H       0.11      -1.24      29.89
C      -0.16      -1.67      28.92
O      -5.85      -1.69      33.48
H       1.61      -0.93      27.94
C       0.69      -1.50      27.83
H       1.04      -1.94      25.74
O      -2.64      -5.17      20.63
C       0.37      -2.05      26.59
H      -2.60      -3.51      27.42
O      -2.28      -7.06      21.77
C      -0.81      -2.81      26.45
H      -1.24      -1.79      23.93
O      -1.82      -6.51      26.98
C      -1.67      -2.95      27.54
H      -1.89      -3.10      21.88
O       0.15      -5.54      27.07
C      -1.13      -3.53      25.19
H      -1.81      -6.73      24.16
