44

H       3.74       3.87      13.10
H       4.19       0.86      10.01
C       3.09      -0.68      11.93
C       5.42      -3.18      16.05
H       1.54      -4.61      21.81
C       1.62      -0.33      23.80
H       2.26       0.02      21.09
H       4.82      -3.57      18.78
H       6.49       0.59      15.86
H       3.66      -4.05      20.90
H       4.49      -0.05      17.22
H       3.42       0.50      18.98
H       3.90      -2.22      13.86
I       6.75       3.04      14.03
N       3.12       3.70      11.08
N       3.23       2.75      10.11
N       0.69      -2.55      24.14
H       2.34       0.12      11.71
H       5.62      -3.44      14.98
N       0.68      -3.77      23.54
H       0.99      -0.06      24.67
C       3.73       3.27      12.19
C       3.92       1.71      10.63
O       2.98      -1.80      11.43
O       5.49      -4.06      16.90
C       4.25       1.97      11.97
C       1.48      -1.72      23.38
O       2.35       0.51      23.28
C       1.45      -3.73      22.44
C       1.99      -2.45      22.27
C       2.81      -2.07      21.12
C       2.80      -0.77      20.58
C       3.47      -0.51      19.40
C       4.18      -1.51      18.69
C       4.25      -2.79      19.28
C       3.58      -3.05      20.46
C       5.82       0.34      15.03
C       5.61       1.25      14.00
C       4.14      -0.31      12.92
C       4.41      -1.25      13.92
C       5.17      -0.90      15.04
C       4.66      -1.12      17.39
C       5.12      -1.75      16.26
C       4.70       0.99      12.95
