26

N       6.95       2.41      27.65
N       1.92       2.31      28.02
N       0.60       2.59      27.73
N      -4.44       2.23      28.26
H       6.56       1.36      29.41
H       4.10       1.65      29.27
H       4.70       3.83      25.58
H       7.16       3.47      25.89
H       2.38       3.59      26.45
H       0.20       1.30      29.31
H      -2.04       0.52      29.89
H      -4.53       0.73      29.68
H      -4.20       3.73      26.85
H      -1.68       3.65      26.92
C       6.12       1.90      28.57
C       4.74       2.06      28.49
C       4.19       2.75      27.40
C       5.07       3.27      26.44
C       6.44       3.08      26.60
C       2.75       2.93      27.24
C      -0.21       1.96      28.53
C      -1.65       2.08      28.42
C      -2.47       1.26      29.21
C      -3.85       1.36      29.09
C      -3.67       3.03      27.50
C      -2.28       2.99      27.54
