34

C       5.42      -5.58      10.89
O      -2.40      -4.95       9.34
O       1.44      -8.58      14.00
O       2.81      -6.77      13.88
O      -0.95      -5.79       7.82
H      -5.20      -5.44      11.69
H      -4.94      -6.30      13.22
H      -5.02      -4.52      13.21
H      -2.62      -5.27      13.38
H      -2.89      -4.44      11.85
H      -3.23      -6.66      10.72
H      -2.88      -7.47      12.25
H       5.83      -6.34      11.57
H       5.65      -5.89       9.86
H       5.94      -4.63      11.09
H       3.50      -4.66      10.43
H       3.69      -5.12      12.13
H       3.60      -7.54      11.47
H       3.35      -7.07       9.79
H      -0.77      -7.37      13.33
H       1.27      -6.01       9.04
C       1.83      -7.50      13.46
C      -1.35      -5.61       9.04
C      -0.33      -7.01      12.39
C      -1.17      -6.57      11.37
C      -0.56      -6.17      10.16
C       0.84      -6.27      10.01
C       1.68      -6.68      11.05
C       1.06      -7.03      12.27
C      -2.66      -6.57      11.65
C      -3.15      -5.34      12.42
C      -4.66      -5.40      12.65
C       3.17      -6.76      10.83
C       3.91      -5.44      11.10
