20

C       0.65       4.18      15.01
C      -0.87       4.37      15.17
C       0.71       6.55      14.45
H       1.19       4.28      15.96
C       0.66       4.90      12.69
H       0.90       3.20      14.58
C      -0.83       6.61      14.24
H       0.96       5.72      12.03
C      -0.87       4.72      12.76
H       1.16       4.00      12.32
H      -1.12       4.87      16.11
N       1.19       5.20      14.06
N      -1.38       5.25      14.07
H      -1.42       3.43      15.12
H       1.24       7.30      13.85
H      -1.10       7.19      13.34
H      -1.39       5.25      11.95
H      -1.18       3.67      12.70
F       1.02       6.75      15.78
F      -1.43       7.21      15.33
