16

H      17.03       4.50      14.53
O      17.58       5.15      16.91
H      20.49       7.00      15.02
O      19.27       6.67      17.01
H      17.51       4.33      12.06
H      20.96       6.85      12.56
O      18.91       4.66      10.02
O      20.39       6.37      10.26
C      18.50       5.87      16.38
C      18.73       5.77      14.91
C      17.89       5.01      14.08
C      18.16       4.92      12.72
C      19.84       6.43      14.36
C      20.10       6.34      13.00
C      19.54       5.53      10.70
C      19.26       5.59      12.17
