37

H      14.74       9.50      21.68
H      15.04      11.50      19.68
H      16.41       7.82      20.16
H      17.34      12.51      21.10
C      17.58      11.72      25.73
C      19.34      10.96      19.39
C      20.37      11.45      20.41
C      21.71      11.79      19.77
H      19.78       7.78      19.88
H      22.16      10.90      19.31
H      21.61      12.55      18.98
H      22.42      12.18      20.52
H      19.96      12.31      20.96
H      20.53      10.68      21.18
H      19.75      10.13      18.80
H      19.11      11.76      18.67
S      19.09       8.34      21.85
O      18.76      12.11      25.99
O      16.54      11.91      26.47
O      15.63       8.19      14.97
C      16.72       8.53      15.50
O      17.91       8.20      15.08
O      19.79       9.00      22.91
O      18.48       7.04      22.05
O      20.20       8.21      20.66
C      15.85      10.92      20.12
C      15.68       9.81      21.21
C      17.35      11.06      24.48
C      16.70       9.29      16.72
C      17.11      11.47      20.86
C      16.94      10.37      21.98
C      18.05      10.53      20.03
C      16.78       9.97      19.26
C      17.87       9.40      21.12
C      16.61       8.87      20.38
C      17.12      10.68      23.35
C      16.70       9.67      17.88
