20

O      -3.47      16.21       5.82
O      -5.75      16.27       5.76
H      -6.75      12.42       2.97
H      -6.75      14.46       4.40
H      -1.42      14.80       3.93
H      -1.53      13.78       5.38
H      -1.43      12.73       2.48
H      -1.53      11.71       3.93
C      -4.62      10.97       2.11
C      -3.43      12.76       3.44
C      -4.61      12.19       2.96
C      -5.81      12.84       3.33
C      -5.81      13.98       4.13
C      -4.60      14.55       4.60
C      -3.43      13.90       4.24
C      -1.92      13.92       4.36
C      -1.92      12.63       3.45
C      -4.61      15.77       5.46
O      -3.48      10.47       1.82
O      -5.76      10.53       1.74
