20

C      22.21      18.13      28.30
C      24.27      17.08      26.53
C      22.15      16.86      27.73
C      24.38      18.37      27.11
C      23.13      16.36      26.88
C      23.38      18.89      27.97
C      21.29      15.61      27.63
C      22.40      15.05      26.66
H      21.17      15.07      28.57
H      20.30      15.76      27.18
H      22.08      14.87      25.63
H      22.94      14.16      27.02
Cl      25.73      19.39      26.77
Cl      23.63      20.44      28.66
C      25.26      16.43      25.61
C      21.07      18.61      29.13
O      24.84      15.35      25.07
O      26.41      16.95      25.45
O      20.89      19.86      29.26
O      20.34      17.69      29.63
