16

Cl      12.74      11.28      13.35
S      11.04       7.37      12.91
S      14.61       8.98      11.46
C      10.02       9.54      14.26
O      10.13      10.72      14.72
C      12.29       9.67      13.03
C      13.38       6.66      11.35
C      11.13       9.03      13.45
C      14.52       7.32      10.93
C      12.56       7.52      12.11
C      13.10       8.81      12.26
C      15.61       6.77      10.12
O       9.03       8.74      14.43
H      13.18       5.62      11.10
O      16.56       7.58       9.81
O      15.52       5.54       9.79
