20

C       5.45       1.55       4.90
C       3.19       3.85       3.21
C       4.34       0.80       5.32
C       4.30       4.60       2.78
C       3.63       2.74       3.99
C       5.02       2.68       4.14
S       2.81       1.45       4.77
S       5.84       3.95       3.32
H       7.46       1.95       5.05
H       6.91       0.47       5.80
N       6.75       1.24       5.15
H       1.16       3.67       3.41
H       1.72       5.00       2.42
N       1.90       4.11       2.88
C       4.35      -0.40       6.12
C       4.29       5.80       1.98
O       3.21      -0.92       6.42
O       5.50      -0.86       6.47
O       5.43       6.34       1.72
O       3.14       6.25       1.59
