35

O       6.30      12.09      13.35
O       6.71      14.08      12.32
O       6.11       9.89       6.62
O       9.74      12.53       5.63
H       5.94      10.71       2.00
H       5.96      11.68       4.33
H       9.79       9.77       4.92
H       9.64       8.91       2.57
H      10.54      14.00       7.50
H      10.66      14.77       9.88
H       5.40      10.79      11.39
H       5.41       9.91       9.03
C       6.78      10.54       2.68
C       6.79      11.07       3.97
C       7.88      10.77       4.79
C       8.93      10.00       4.30
C       8.85       9.52       3.00
C       8.93      12.15       6.48
C       8.93      12.63       7.88
C       8.01      12.12       8.82
C       7.04      11.16       8.43
C       6.95      10.71       7.03
C       9.85      13.60       8.25
C       9.91      14.04       9.57
C       9.05      13.53      10.54
C       8.04      12.59      10.18
C       7.04      12.11      11.08
C       6.15      11.13      10.68
C       6.14      10.65       9.36
C       9.38      13.91      11.96
C       6.71      12.80      12.38
N       7.78       9.77       2.21
N       7.91      11.24       6.14
O       9.39      12.98      12.83
O       9.74      15.11      12.14
