22

H      15.18       5.29      12.81
H      12.69       5.28      12.89
H      15.09       4.47       8.59
H      10.49       5.00      11.72
H      10.41       4.23       7.49
H      12.90       4.22       7.43
C       8.82       4.61       9.68
C      16.77       4.91      10.61
C      15.27       4.89      10.68
C      14.59       5.11      11.91
C      13.21       5.10      11.95
C      12.45       4.86      10.78
C      13.13       4.63       9.54
C      14.54       4.65       9.52
C      11.03       4.84      10.79
C      10.32       4.61       9.62
C      10.99       4.39       8.40
C      12.37       4.39       8.36
O       8.18       4.57       8.58
O      17.41       5.05      11.70
O      17.28       4.80       9.46
O       8.30       4.66      10.85
