26

O      -2.37      -2.61       8.03
O       3.19       2.07       8.72
O      -0.84      -3.67       6.74
O       1.62       3.13       7.47
H       2.93      -0.48       7.99
H      -0.54       3.41       6.95
H      -2.19       3.51       7.10
H      -3.55      -0.72       8.52
H      -3.03       0.44       9.54
H      -2.58       0.55       6.64
H       1.20      -3.56       7.20
H       2.72      -2.80       7.46
H      -1.56       2.21       8.98
C      -1.23      -2.67       7.47
C      -0.14       0.92       7.92
C      -1.36       1.84       7.95
C      -2.21       0.53       7.68
C       2.08       2.10       8.07
C      -0.89      -0.23       7.77
C      -0.33      -1.51       7.65
C       1.09      -1.59       7.71
C       1.85      -0.41       7.92
C       1.26       0.86       7.99
N      -1.41       2.87       6.92
N       1.73      -2.81       7.64
N      -3.33       0.28       8.58
