23

C      12.39      17.53       8.84
H      14.00      18.86      10.56
C      11.68      17.42       7.66
C      12.43      17.60      11.34
C      11.96      16.92      12.48
C      12.71      16.91      13.66
C      13.94      17.58      13.72
C      14.39      18.30      12.60
C      13.64      18.30      11.43
C      14.79      17.51      14.93
H       8.58      17.21       8.72
N      10.34      17.29       7.62
H       9.70      17.45      10.93
H      13.48      17.55       8.80
H      12.20      17.42       6.70
C       9.66      17.30       8.79
H      11.03      16.36      12.43
O      16.00      17.90      14.91
C      10.30      17.42      10.02
H      12.35      16.38      14.54
O      14.28      17.01      16.01
C      11.70      17.53      10.07
H      15.34      18.83      12.66
