26

H      14.93      11.86       1.76
H      13.68       9.75       1.76
H      13.68       4.70      -1.74
O      16.57      13.50       0.96
H      14.89       6.84      -1.77
O      12.09       3.03      -0.90
H      17.08      10.63      -1.74
H      15.85       8.50      -1.77
H      11.53       5.93       1.76
H      12.73       8.08       1.76
O      10.95       3.69       0.96
O      17.71      12.84      -0.90
C      16.85      12.66       0.03
C      11.81       3.87       0.03
C      16.09      11.38       0.02
C      12.54       5.17       0.02
C      15.13      11.11       1.00
C      14.42       9.91       0.98
C      13.48       5.45      -0.98
C      14.16       6.66      -0.98
C      12.27       6.14       0.99
C      12.95       7.35       0.98
C      16.33      10.42      -0.98
C      15.63       9.22      -0.98
C      14.66       8.93      -0.00
C      13.92       7.65      -0.00
