10

C       5.21       5.47       1.97
C       5.24       5.29      -0.60
C       5.23       5.38       0.75
O       6.33       4.80      -3.84
O       4.17       5.44       4.04
O       6.40       5.90       3.90
O       4.14       5.42      -3.82
C       5.25       5.14      -3.26
C       5.26       5.61       3.41
C       5.27       5.22      -1.82
