14

C      12.07      10.84       5.94
H      11.32      15.36       8.20
C      12.13      14.90       8.78
H      13.43      11.22       7.61
C      12.62      11.67       7.03
O      13.58      15.18      10.65
C      12.62      13.69       8.45
H      13.44      13.28       9.06
C      12.13      12.89       7.36
H      11.31      13.30       6.76
O      11.17      11.40       5.16
O      12.32      16.93      10.00
O      12.44       9.65       5.81
C      12.69      15.73       9.87
