16

N       8.70       5.63      22.16
N      11.55       5.73      22.28
H      12.45       4.48      24.32
N      11.46       4.30      24.14
H      10.94       3.69      24.75
C       9.44       6.34      21.30
C      10.81       4.98      23.17
C      10.82       6.38      21.38
C       9.39       4.95      23.08
H       8.81       4.37      23.80
C      10.96       7.31      20.19
C       9.37       7.26      20.11
H      11.39       8.29      20.42
H      11.49       6.87      19.34
H       8.86       8.22      20.28
H       8.97       6.80      19.19
