16

C       8.26       8.08       1.65
C      12.83       9.81       4.65
H       9.53      10.43       1.43
H      11.56      11.18       2.73
O       7.54       8.92       1.01
O      13.55      10.79       4.25
H       9.57       6.69       3.56
H      11.53       7.46       4.91
O       7.97       6.83       1.59
O      13.12       9.24       5.77
C       9.99       9.80       2.18
C      11.10      10.21       2.90
C       9.43       8.53       2.43
C      11.66       9.36       3.87
C       9.99       7.68       3.40
C      11.10       8.10       4.13
