26

C      -0.13      13.22       4.93
C       0.15       9.06      10.82
C      -1.30      12.75       5.55
C      -1.24      11.93       6.68
C       1.32       9.50      10.16
C       1.25      10.28       9.01
C      -1.08       9.46      10.24
C      -1.15      10.24       9.10
C       1.09      12.81       5.49
C       1.16      12.00       6.61
C      -0.01      11.53       7.24
C       0.02      10.68       8.45
Br      -3.08      13.15       4.98
Br       3.10       9.09      10.73
O       1.20       7.84      12.56
O      -1.19      14.46       3.20
O       1.08      14.40       3.26
O      -1.06       7.88      12.48
H      -2.18      11.60       7.12
H       2.19      10.59       8.56
H      -1.99       9.12      10.74
H      -2.13      10.50       8.72
H       2.00      13.17       5.01
H       2.14      11.72       6.98
C       0.09       8.21      12.05
C      -0.08      14.10       3.71
