18

C       5.17       0.16      10.53
O       4.29      -1.92       9.82
O       6.12       4.29      12.78
C       5.58       0.85      11.67
H       5.89       0.30      12.56
H       4.45       0.30       8.50
C       4.77       0.85       9.38
O       4.22       4.29       8.28
H       5.17       4.03      10.53
C       5.17       2.94      10.53
C       5.93       3.03      12.89
C       5.17      -1.34      10.53
O       6.02       2.44      14.02
C       4.41       3.03       8.16
C       5.56       2.25      11.68
O       4.32       2.44       7.04
O       6.05      -1.92      11.24
C       4.78       2.25       9.38
