70

H      -0.28      11.16       1.59
H      -3.23      17.40      -2.89
H      -0.77      10.49      -6.63
H      -3.25      15.17      -6.54
H       0.22       8.56      -2.93
H      -1.92      15.12       1.60
H      -0.96      16.12       4.67
H      -2.48      15.34       5.14
H      -2.38      16.25       3.62
H      -0.87      10.28       4.75
H       0.67      11.09       5.09
H       0.47      10.13       3.59
H       0.81       6.37      -2.80
H       1.80       5.77      -4.16
H       0.13       5.26      -4.01
H      -1.35       8.10      -8.62
H       0.37       7.78      -8.80
H      -0.21       9.46      -8.67
H       0.91      17.43      -8.77
H      -0.79      17.85      -8.59
H      -0.29      16.15      -8.52
H      -1.04      20.15      -3.87
H      -3.35      20.64      -4.35
H      -3.58      19.71      -2.85
C      -0.89      13.21       5.73
C      -0.17      19.74      -6.82
C       0.26       5.95      -6.81
C      -0.60      12.03       2.15
C      -1.11      13.13       1.45
C      -3.39      17.38      -3.96
C      -3.18      16.17      -4.65
C      -0.34       9.63      -4.71
C      -0.46       9.59      -6.10
C      -3.39      16.12      -6.03
C      -3.75      17.26      -6.75
C      -3.91      18.47      -6.05
C      -3.76      18.54      -4.64
C      -0.21       8.41      -6.80
C       0.17       7.25      -6.08
C       0.37       7.31      -4.68
C       0.11       8.50      -4.02
C      -1.52      14.27       2.16
C      -1.42      14.33       3.55
C      -0.93      13.20       4.23
C      -0.52      12.04       3.55
C      -0.89      11.93      -1.96
C      -2.01      14.10      -1.92
C      -1.24      13.09      -0.01
C      -0.73      10.85      -3.97
C      -1.73      12.91      -4.03
C      -2.66      15.00      -3.92
C      -1.84      15.57       4.28
C      -0.03      10.82       4.28
C       0.80       6.11      -3.87
C      -0.35       8.44      -8.30
C      -0.01      17.17      -8.24
C      -3.92      19.83      -3.89
N      -1.54      12.98      -2.64
N      -1.87      14.13      -0.60
N      -0.72      12.01      -0.64
N      -0.45      10.88      -2.65
N      -1.34      11.82      -4.68
N      -2.59      15.10      -2.58
N      -2.29      13.94      -4.66
O       1.20       5.13      -6.55
O       0.04      13.84       6.32
O       0.71      19.97      -7.72
O      -0.64       5.72      -7.68
O      -1.13      20.52      -6.56
O      -1.81      12.56       6.34
