16

C       4.39       4.96       6.08
C       4.30       3.56       6.12
O       8.68       5.47       6.13
S       2.86       5.74       5.98
S       5.83       2.77       6.20
O       0.01       3.04       5.90
C       8.09       4.34       6.19
O       8.66       3.19       6.24
C       0.60       4.18       5.90
O       0.03       5.33       5.83
F       2.60       1.84       6.08
F       6.09       6.68       6.09
C       2.95       3.13       6.06
C       5.74       5.38       6.12
C       2.06       4.19       5.98
C       6.63       4.32       6.19
