37

N       4.87       6.33      10.83
N       8.91      10.31      16.27
N       9.05      11.59      16.23
N       4.89       7.52      10.13
N       8.47      14.64      23.23
N       8.42      15.83      22.58
O       8.00      11.83      13.96
F       5.71       5.51      12.81
H       9.08      12.68      22.72
H       9.92      11.69      20.75
H       8.95      16.50      20.65
H       9.79      10.45      18.61
H       8.51       7.81      16.02
H       7.26       6.64      14.21
H       9.25      15.40      18.65
H       9.15      14.15      16.51
H       6.70      10.46      12.23
H       5.74       9.42      10.46
H       8.49      12.07      14.84
C       5.58       6.53      11.94
C       9.24      14.31      21.14
C       6.88       8.47      13.08
C       7.10       9.85      13.03
C       7.83      10.51      14.03
C       8.33       9.75      15.14
C       8.12       8.36      15.16
C       7.42       7.72      14.16
C       9.68      11.53      18.64
C       9.75      12.24      19.83
C       9.40      12.22      17.44
C       9.52      13.63      19.88
C       9.39      14.31      18.65
C       9.33      13.62      17.45
C       5.60       8.41      10.84
C       6.08       7.84      12.04
C       8.97      13.71      22.39
C       8.89      15.66      21.34
