27

C       9.47      12.10       4.43
C       9.09      10.77       0.89
H       9.67       6.39       1.05
C      10.46       8.87       1.71
C      11.73       8.66       0.87
H       6.45      10.86       4.74
C      10.08       7.62       2.56
H       6.81      10.34       2.33
C       9.40       7.99       3.87
H      10.71      12.18       2.69
H      10.22      12.56       5.08
H       8.23      10.96       0.23
N       8.31      11.73       5.01
H       9.97      11.28       0.49
N       9.34       9.30       0.86
H      10.73       9.66       2.42
O      11.68       8.71      -0.40
H      11.03       7.10       2.80
O      12.78       8.48       1.56
H      10.01       8.70       4.44
O       9.19       6.76       1.85
H       9.26       7.09       4.48
H       8.42       8.45       3.68
C       7.38      11.13       4.24
C       7.58      10.86       2.90
C       8.79      11.22       2.30
C       9.74      11.87       3.09
