20

F       3.39      10.99       2.44
F      -3.55      10.80      -2.35
H       0.84      11.03       2.27
H      -0.99      10.88      -2.16
H      -3.63      10.91       1.98
H      -1.16      10.96       2.19
H       3.46      10.83      -1.89
H       0.99      10.84      -2.08
C       2.73      10.96       1.28
C       1.34      10.98       1.30
C      -2.89      10.85      -1.18
C      -1.50      10.88      -1.20
C      -2.99      10.90       1.10
C      -1.61      10.93       1.20
C       2.82      10.88      -1.01
C       1.44      10.88      -1.09
C       0.66      10.93       0.08
C      -0.82      10.92       0.03
N       3.46      10.91       0.18
N      -3.63      10.86      -0.08
