13

N       2.60       5.57      24.51
C       2.09       4.15      28.52
C       2.26       4.66      27.12
C       3.32       4.20      26.34
O       0.91       3.87      28.93
H       4.03       3.47      26.75
C       3.45       4.66      25.04
O       3.14       4.08      29.23
H       4.23       4.30      24.38
C       1.61       6.06      25.29
H       0.98       6.82      24.83
C       1.39       5.62      26.59
H       0.57       6.02      27.18
