30

H       4.45      17.58       7.02
H       0.47      19.84       6.24
H       4.49      16.25       9.12
H       0.40      20.94       4.03
H       0.19      18.10       7.52
H       4.10      17.81       5.04
O      -0.45      15.51       9.39
O      -0.57      17.45      10.43
O       4.05      18.63       1.53
O       5.48      18.75       3.20
C       2.52      15.71      10.81
C       2.15      20.81       2.03
C       3.53      17.43       7.58
C       1.25      19.62       5.51
C       3.57      16.70       8.76
C       1.20      20.25       4.27
C       2.43      16.47       9.53
C       2.20      20.04       3.31
C       1.24      17.00       9.03
C       3.24      19.16       3.65
C       1.16      17.74       7.86
C       3.28      18.51       4.87
C       2.32      17.98       7.11
C       2.28      18.71       5.83
N      -0.02      16.63       9.69
N       4.34      18.83       2.71
O       3.66      15.30      11.16
O       1.01      20.99       1.50
O       1.43      15.57      11.46
O       3.26      21.25       1.60
