30

C      40.25      23.24      12.00
C      39.19      22.63      12.87
C      42.24      24.39      10.38
H      41.41      23.91      13.68
H      43.57      25.16      13.47
H      39.27      22.67      10.18
H      40.16      23.19       7.90
C      45.23      26.11       7.94
C      46.29      26.72       7.07
C      43.24      24.97       9.56
H      46.21      26.68       9.76
H      45.32      26.16      12.04
H      44.07      25.44       6.26
H      41.91      24.20       6.47
O      38.21      22.06      12.27
O      39.35      22.72      14.13
O      46.13      26.63       5.81
O      47.26      27.29       7.67
C      41.35      23.87      12.59
C      42.35      24.45      11.81
C      43.49      25.11      12.38
C      40.13      23.17      10.61
C      41.11      23.74       9.78
C      41.02      23.68       8.35
C      45.35      26.18       9.33
C      44.37      25.62      10.16
C      44.46      25.67      11.59
C      44.13      25.48       7.35
C      43.13      24.90       8.14
C      41.99      24.24       7.56
