42

C      11.95      12.24      10.41
C      18.93      12.11      10.33
H      18.63      10.74      14.36
H      18.69       9.04      13.92
H      12.19      12.42      12.54
H      12.31       8.78      13.62
H      12.21      10.38      14.28
H      20.06      10.48      12.37
H      18.77       9.62      11.50
H      10.89      10.34      12.22
H      12.22       9.63      11.29
N      14.78       9.16      14.27
N      16.16       9.20      14.31
N      16.14      14.27       9.15
N      14.75      14.31       9.20
H      12.28      14.36      10.74
H      12.22      13.92       9.04
H      18.73      12.54      12.42
H      18.61      13.62       8.78
H      18.71      14.28      10.38
H      10.86      12.37      10.48
H      12.14      11.50       9.62
H      20.02      12.22      10.34
H      18.69      11.29       9.63
C      14.10       9.93      13.43
C      14.75      10.85      12.56
C      14.01      11.72      11.73
C      16.18      10.87      12.57
C      16.84      10.01      13.50
C      18.33      10.02      13.58
C      12.51      11.72      11.74
C      12.60       9.82      13.42
C      18.97      10.42      12.24
C      11.99      10.33      12.11
C      16.82      13.43       9.93
C      16.17      12.56      10.85
C      16.90      11.73      11.72
C      14.74      12.57      10.87
C      14.08      13.50      10.01
C      12.58      13.58      10.02
C      18.41      11.74      11.72
C      18.31      13.42       9.82
