18

O       9.55       7.60       0.01
H      11.12       5.49       5.53
O      11.31       9.47       5.79
H       9.67       5.49       1.47
O       9.48       9.47       1.20
H      10.40       9.22       3.50
C      10.40       3.85       3.50
C      11.14       8.20       5.87
C       9.65       8.20       1.12
C      10.40       5.34       3.50
C      10.80       6.04       4.64
C       9.99       6.04       2.35
C      10.78       7.44       4.65
C      10.01       7.44       2.34
C      10.40       8.13       3.50
O      11.28       3.26       4.20
O       9.51       3.26       2.79
O      11.25       7.60       6.99
