30

H       2.68      20.09      16.53
H       2.68      16.79      18.97
H       0.65      16.33      14.48
H       0.58      18.53      15.64
N       3.02      22.47      17.58
H       0.65      20.56      21.02
H       0.58      18.35      19.86
N       3.02      14.42      17.91
O       0.94      23.00      21.16
O       2.79      23.62      20.02
H       3.34      23.20      18.21
H       3.67      22.21      16.85
O       0.95      13.89      14.33
O       2.80      13.27      15.47
H       3.34      13.68      17.28
H       3.67      14.67      18.65
C       1.84      22.79      20.27
C       1.84      14.10      15.23
C       1.78      21.54      19.49
C       1.78      15.34      16.01
C       2.37      21.42      18.20
C       2.23      20.20      17.52
C       2.38      15.47      17.30
C       2.23      16.69      17.98
C       1.12      16.45      15.45
C       1.08      17.68      16.10
C       1.12      20.43      20.05
C       1.08      19.21      19.40
C       1.63      19.09      18.11
C       1.63      17.80      17.39
