34

C       6.12      11.31       1.82
C       5.06      11.92       2.68
O       5.77      10.38       1.01
C       2.92      11.87       3.78
C       3.06      13.20       4.24
C       4.24      13.85       3.86
C       5.25      13.23       3.14
C       3.87      11.25       2.98
O       7.30      11.76       1.90
O       1.37      10.22       3.30
O       1.10      11.38       5.15
O       3.44      15.97       4.37
O       5.61      15.69       4.25
H       3.69      10.24       2.60
H       6.17      13.76       2.91
O       3.70      14.18       8.16
O       3.96      12.61       6.66
O       1.63      14.30       2.31
O      -0.55      14.35       2.62
O      -0.71      16.46       8.46
O      -2.23      15.87       6.94
C      -1.06      15.86       7.39
C       0.00      15.14       6.62
C       1.19      14.71       7.22
C       2.14      14.05       6.45
C       2.01      13.87       5.06
C       0.82      14.37       4.49
C      -0.19      14.95       5.25
H       1.37      14.88       8.28
H      -1.10      15.29       4.77
N       1.71      11.10       4.10
N       4.45      15.27       4.19
N       3.35      13.58       7.14
N       0.62      14.33       3.04
