12

O       3.30       6.59       4.18
O       4.86      12.71      -4.20
C       4.39       7.74       2.53
C       3.77      11.54      -2.55
C       4.28       8.48       1.55
C       3.88      10.82      -1.57
C       4.14       9.28       0.48
C       4.01      10.02      -0.50
C       4.43       6.90       3.69
C       3.73      12.38      -3.72
O       5.59       6.57       4.12
O       2.57      12.70      -4.16
