26

H       6.69       4.89       7.64
N       8.27       4.91       8.97
N       7.90      -4.73       8.77
H       9.82       2.22      10.32
N      10.04       4.88      10.48
H       6.41      -2.02       7.38
N       6.12      -4.68       7.28
H       9.48      -4.73      10.10
H      10.78       4.36      10.93
H      10.24       5.86      10.25
H       5.91      -5.65       7.53
H       5.39      -4.15       6.82
H       6.55       2.39       7.50
H       9.67      -2.24      10.22
C       9.12       2.78       9.72
C       7.10      -2.59       8.00
C       9.15       4.20       9.72
C       7.03      -4.00       8.02
C       7.37       4.25       8.21
C       8.82      -4.08       9.53
C       7.29       2.88       8.13
C       8.93      -2.71       9.59
C       8.19       2.11       8.92
C       8.05      -1.94       8.79
C       8.15       0.70       8.88
C       8.10      -0.52       8.82
