29

C       5.48       2.84       8.27
C       6.49      -1.18       6.74
C       7.07       1.13       6.41
H       5.16       0.26       5.84
C       6.68       2.56       6.12
H       5.18       1.83       7.95
C       8.33       0.84       6.95
H       5.81      -2.03       6.66
C       8.59      -0.44       7.41
H       7.45       3.06       5.51
C       6.35       4.09      10.30
H       5.72       2.61       5.61
C       5.87       2.75       9.76
H       9.11       1.60       7.04
C       6.86       1.61      10.04
H       9.54      -0.70       7.87
H       7.24       4.46       9.77
H       6.61       4.01      11.37
N       7.68      -1.43       7.33
H       5.58       4.86      10.20
N       6.57       3.32       7.40
H       4.93       2.49      10.27
O       3.21       3.27       8.72
H       6.49       0.66       9.63
O       4.25       4.72       7.33
H       6.98       1.49      11.12
H       7.85       1.80       9.60
C       4.22       3.69       8.08
C       6.15       0.08       6.27
