13

C       7.80       5.92       6.00
C       6.91       6.86       5.20
O       6.39       6.11       4.11
H       5.26       7.71       3.37
H       6.67       7.22       2.36
O       5.00       4.69       2.47
O       4.28       6.50       1.31
H       7.50       7.71       4.84
O       8.49       6.50       6.90
O       7.77       4.69       5.74
H       6.09       7.22       5.85
C       4.97       5.92       2.21
C       5.86       6.86       3.02
