22

H       2.22       5.49       9.72
H       7.38       4.89      12.50
H       6.89       3.18      12.50
H       7.55       4.86      10.01
H       7.01       3.15       9.99
H       1.79       6.06      13.33
C       4.34       4.92       8.13
C       6.83       4.15      10.43
C       4.03       4.64      13.98
C       5.38       4.58      10.43
C       4.29       4.89       9.62
C       3.09       5.20      10.30
C       2.99       5.18      11.70
C       4.11       4.83      12.51
C       5.29       4.57      11.83
C       6.74       4.15      12.01
C       1.71       5.62      12.31
O       5.47       4.67       7.58
O       3.26       5.21       7.52
O       5.10       4.84      14.64
O       2.91       4.27      14.47
O       0.62       5.58      11.73
