20

H       0.41       4.29       4.87
H       0.51       2.63       3.01
H       5.72       3.44       2.54
H       5.71       2.10       3.72
H       5.61       5.12       4.43
H       5.62       3.78       5.61
C       2.48       5.45       6.20
C       3.71       4.02       4.54
C       2.52       4.48       5.07
C       1.36       3.95       4.48
C       1.41       3.03       3.44
C       2.63       2.56       2.91
C       3.77       3.09       3.49
C       5.27       3.07       3.47
C       5.21       4.12       4.65
C       2.64       1.58       1.79
O       1.33       5.78       6.64
O       3.61       5.84       6.63
O       1.50       1.18       1.37
O       3.79       1.24       1.35
