24

H      -4.45       8.34       6.77
C      -4.92       4.21       3.24
C      -4.07       3.49       4.05
C      -5.42       5.53       3.59
H      -7.75       7.40       4.12
C      -4.98       6.33       4.59
H      -2.07       2.34       5.78
H      -4.92       0.73       2.94
N      -6.46       9.01       6.59
N      -7.49       8.70       5.76
H      -3.69       4.11       4.87
H      -6.31       5.83       3.02
H      -4.05       6.09       5.12
N      -2.65       0.39       5.23
N      -3.57      -0.11       4.33
N      -5.48       3.65       2.02
C      -5.39       8.26       6.23
C      -7.08       7.77       4.88
O      -6.23       4.37       1.33
O      -5.17       2.49       1.69
C      -5.74       7.43       5.14
C      -2.71       1.72       5.16
C      -4.16       0.90       3.69
C      -3.66       2.13       4.19
