40

H       2.19       8.86       0.25
H       2.18       8.73      -2.27
H       2.19       9.48      -5.99
H       1.79       5.22      -5.78
H       0.92       3.72       0.63
H       2.14       4.36       1.74
H       2.63       3.46       0.28
H       2.85       3.47      -1.98
H       1.88       4.16      -3.30
H       1.09       3.45      -1.86
H       1.17      10.09      -9.01
H       2.76       9.62      -9.62
H       2.63      10.55      -8.10
H       2.77       4.31      -8.72
H       1.17       4.71      -9.34
H       1.34       3.95      -7.74
C       1.99       7.13     -10.02
C       1.90       6.88       1.97
C       1.99       6.73       0.49
C       2.12       7.90      -0.27
C       2.12       7.84      -1.65
C       2.04       6.59      -2.29
C       1.98       5.39      -1.53
C       1.94       5.46      -0.12
C       2.10       8.52      -6.51
C       2.00       7.36      -5.75
C       1.88       6.11      -6.39
C       1.89       6.03      -7.77
C       1.98       7.22      -8.53
C       2.08       8.48      -7.91
C       1.91       4.19       0.68
C       1.94       4.05      -2.21
C       2.17       9.75      -8.70
C       1.78       4.68      -8.43
N       2.02       6.44      -3.69
N       2.03       7.53      -4.35
O       1.06       7.73     -10.67
O       2.92       6.46     -10.58
O       0.92       6.31       2.57
O       2.79       7.59       2.56
