20

C      18.52       7.87      14.94
H      15.65       7.24      12.50
N      17.31      12.20      17.50
N      17.48       6.60      13.20
H      16.16      11.14      14.53
H      18.57      11.20      18.81
C      16.70      11.10      15.47
C      18.05      11.13      17.85
H      18.71       9.14      17.40
H      15.47       9.15      14.10
H      19.32       6.08      13.99
H      16.06      13.07      16.10
C      18.14      10.00      17.05
H      19.39       8.02      15.58
C      16.36       8.52      14.10
C      16.43       7.44      13.23
C      17.43       9.96      15.84
C      17.44       8.77      14.96
C      18.50       6.80      14.05
C      16.65      12.18      16.33
