31

H       2.40       8.05       6.04
H       6.25       9.31       7.48
H       7.27      11.43       6.63
H       7.20      13.37       5.10
H       6.08      14.62       3.25
H       2.23      13.34       1.80
H       1.28       9.29       4.19
H       0.31      10.69       2.63
C       4.34       7.43       7.79
C       3.23       8.76       5.99
C       4.33       8.58       6.84
C       5.40       9.48       6.81
C       5.38      10.59       5.96
C       4.27      10.77       5.08
C       3.19       9.83       5.08
C       6.43      11.57       5.95
C       6.38      12.65       5.11
C       5.29      12.83       4.19
C       4.23      11.88       4.19
C       3.12      12.06       3.30
C       2.06      11.08       3.32
C       2.10      10.01       4.17
C       5.25      13.91       3.29
C       4.15      14.08       2.44
C       3.08      13.18       2.46
C       4.13      15.24       1.50
O       5.48       7.04       8.22
O       3.21       6.94       8.11
O       5.26      15.72       1.16
O       2.99      15.64       1.09
O       1.04      11.31       2.44
