26

H       4.38       6.70      14.29
H       8.41       6.67      16.14
H       4.44       8.36      16.03
H       8.49       7.99      14.25
H       4.44       6.47      11.80
H       8.43       6.90      18.63
H       4.47       8.54      18.51
H       8.54       7.72      11.77
O       5.45       6.82       9.51
O       7.55       7.60      20.81
O       5.32       7.97      20.78
O       7.69       7.16       9.60
C       6.55       7.01      10.14
C       6.44       7.79      20.21
C       5.29       6.94      13.73
C       7.55       7.11      16.66
C       5.31       8.02      16.59
C       7.61       7.63      13.72
C       5.32       6.80      12.35
C       7.57       7.23      18.04
C       5.33       8.14      17.98
C       7.64       7.49      12.33
C       6.50       7.08      11.64
C       6.45       7.74      18.71
C       6.43       7.36      14.44
C       6.43       7.50      15.91
