26

O       1.02      12.55      23.63
H       6.22       9.59      31.08
H       4.58      13.47      31.91
O       6.07      12.63      33.62
H       1.61       9.29      25.87
H       2.92       9.31      27.98
C       6.14      11.55      32.96
C       1.83      11.41      25.51
H       3.57      13.55      27.52
C       2.05      10.22      26.23
C       5.46      11.53      31.63
H       2.23      13.51      25.41
C       2.80      10.23      27.40
C       5.59      10.42      30.77
C       3.34      11.43      27.90
H       5.02       9.53      28.90
C       4.67      12.61      31.23
H       3.35      13.41      29.74
C       3.12      12.62      27.17
C       1.06      11.44      24.23
C       2.38      12.60      25.99
C       4.09      11.46      29.17
C       3.99      12.58      30.02
C       4.91      10.39      29.56
O       6.71      10.46      33.33
O       0.50      10.34      23.85
