26

C      11.44       2.87       1.16
C       9.50       1.47      10.31
C       9.89      -0.29       4.53
O       8.25       2.05      12.16
H       9.60      -0.25       7.29
H      10.26      -1.99       5.85
H       8.54      -1.58       5.66
H       9.41      -2.39       4.35
H       9.14       0.00       3.77
H      10.83      -0.38       3.96
H      10.77       4.23       5.47
H      10.41       3.93       7.92
O       9.28       0.02      12.08
O      12.22       2.03       0.62
O      11.13       4.03       0.70
C       9.86       0.72       6.87
C       9.50      -1.63       5.14
C      10.04       0.86       5.50
C      10.51       3.25       5.88
C      10.32       3.09       7.24
C      10.00       1.82       7.75
C      10.38       2.15       5.00
C      10.64       2.35       3.63
C       9.76       1.64       9.13
C      10.90       2.54       2.45
C       8.98       1.19      11.61
