16

C      22.17      13.33      20.30
C      20.78      13.33      20.02
S      19.98      11.97      20.71
S      22.97      14.70      19.63
F      19.14      14.67      18.87
O      22.68       9.85      22.64
O      20.38      16.95      17.71
H      23.58      12.00      21.41
O      22.63      17.13      18.14
C      21.53      10.19      22.19
C      21.47      15.30      18.97
C      21.49      16.55      18.21
C      20.41      14.45      19.26
C      22.57      12.22      21.06
O      20.42       9.59      22.38
C      21.50      11.40      21.36
