16

C      23.97       8.82      26.68
O      24.20       9.02      25.43
O      28.83      11.84      29.75
O      27.60      11.15      31.53
O      23.02       8.14      27.17
F      23.77       8.73      29.61
C      27.83      11.26      30.28
H      27.85      11.26      27.56
H      25.60       9.88      30.97
C      24.95       9.44      27.63
C      26.84      10.63      29.36
C      24.82       9.37      29.03
C      27.00      10.72      27.97
C      25.74       9.95      29.89
C      26.06      10.13      27.13
H      26.16      10.19      26.04
