22

H       1.13      13.62       4.67
H       2.03      12.59       3.53
H       2.90      13.63       4.70
O       2.90       5.97       4.20
H       1.13       6.49       6.94
H       2.03       7.52       8.07
H       2.90       6.48       6.91
C       1.97      13.30       7.68
C       1.97       6.81       3.93
C       2.01      11.86       5.56
C       2.01       8.24       6.05
C       1.97      12.02       6.94
C       1.97       8.08       4.67
C       1.94       9.63       6.36
C       1.94      10.48       5.25
C       2.02      12.98       4.56
C       2.02       7.13       7.05
S       1.88      10.53       7.83
S       1.88       9.57       3.78
O       1.05      13.48       8.54
O       2.90      14.14       7.41
O       1.05       6.62       3.07
