30

C      11.97       7.78      25.49
H      13.00       9.58      23.80
H      13.78       8.88      17.09
H      13.63      10.55      21.57
H      13.82      10.33      19.13
H      11.78       5.47      24.08
O      14.31       7.44      15.11
O      13.30       5.42      15.18
H      11.78       4.02      22.05
H      11.96       3.79      19.60
H      12.57       4.76      17.39
O      12.30       8.89      26.04
O      11.24       6.89      26.05
C      13.60       6.55      15.70
C      13.42       8.05      17.70
C      13.23       8.23      19.08
C      12.98       8.51      21.92
C      13.38       9.61      21.09
C      13.49       9.48      19.73
C      12.82       8.63      23.30
C      12.37       7.55      24.07
C      12.74       5.72      17.88
C      12.56       5.85      19.26
C      12.82       7.11      19.88
C      12.17       4.75      20.08
C      12.07       4.87      21.44
C      12.31       6.13      22.09
C      12.71       7.25      21.29
C      12.13       6.30      23.47
C      13.19       6.80      17.11
