29

C       1.51      12.71       4.84
C      -1.55      12.78       4.56
H      -0.72      10.38       1.34
H      -1.96       9.88       5.06
H      -2.04      11.30       3.21
H       1.72      10.34       5.60
N      -1.91      13.70       5.17
H       2.22      11.67       3.16
H      -0.72      10.83       5.90
H       2.24       9.55       4.09
O       0.30      12.62       0.80
O       0.04       8.44       6.62
O       0.28       7.08       4.81
O       1.76      12.56       6.02
O      -0.08      13.94       2.60
H       1.43      13.72       4.40
H      -1.18       8.66       2.89
H       0.52       8.24       2.69
H       1.01      10.23       1.56
C      -0.15       9.05       2.99
C       0.06      10.30       2.11
C      -1.00      10.40       4.92
C       1.46      10.17       4.55
C       0.10       9.43       4.45
C       0.08      11.59       2.95
C      -1.19      11.54       3.87
C       1.36      11.54       3.85
C       0.14       8.22       5.37
C       0.09      12.81       2.04
