16

C      13.32      12.12       0.83
C      12.41      14.23      -0.17
C      14.17      13.04      -1.34
C      14.15      14.00      -2.35
C      12.39      15.19      -1.18
O      14.13      11.14       0.68
O      12.39      17.06      -3.23
O      12.51      12.29       1.81
O      14.06      15.96      -4.31
C      13.23      16.11      -3.35
H      11.73      14.30       0.68
H      14.86      12.20      -1.39
H      14.83      13.93      -3.20
H      11.70      16.03      -1.13
C      13.26      15.08      -2.27
C      13.30      13.15      -0.25
