20

H       3.84       1.11      10.02
H       5.88      -1.01       6.10
H       7.29       0.52       8.06
H       2.43      -0.43       8.07
C       4.55      -2.79       8.11
C       5.18       2.88       8.02
C       4.28       0.62       9.15
C       5.44      -0.52       6.98
C       5.08       1.40       8.04
C       4.64      -1.30       8.09
C       6.22       0.31       8.06
C       3.51      -0.22       8.07
C       5.42      -0.45       9.16
C       4.31       0.54       6.97
O       5.67      -3.38       8.05
O       4.05       3.47       8.08
O       3.40      -3.34       8.19
O       6.32       3.43       7.94
F       5.97      -0.97      10.30
F       3.75       1.07       5.82
