36

Br       4.31      12.63      16.69
Br       9.10      13.00      12.20
H       8.27       8.33      10.75
H       5.14      17.30      18.14
H       8.51       9.94      12.63
H       4.91      15.69      16.25
O       7.48       7.67       8.58
O       5.94      17.96      20.31
H       4.70      11.66      11.57
H       8.71      13.97      17.32
O       5.21       7.63       8.59
O       8.21      17.99      20.29
H       4.85      11.19      14.22
H       8.56      14.44      14.66
C       6.34       8.04       9.01
C       7.08      17.58      19.88
C       7.49       9.06      10.95
C       5.93      16.57      17.93
C       7.62       9.97      12.00
C       5.79      15.66      16.89
C       6.61      10.91      12.24
C       6.80      14.71      16.65
C       5.48      10.92      11.41
C       7.93      14.71      17.48
C       5.36      10.01      10.36
C       8.06      15.62      18.53
C       6.36       9.05      10.11
C       7.06      16.57      18.77
C       5.67      11.91      14.31
C       7.75      13.72      14.58
C       5.69      12.80      15.38
C       7.73      12.83      13.51
C       6.72      13.74      15.54
C       6.69      11.89      13.35
Br       3.81      10.23       9.27
Br       9.61      15.40      19.61
