28

H       1.50       7.76      12.44
H       1.54       7.68      14.96
H      -2.75       7.68      15.02
H      -2.79       7.76      12.49
H       2.46       7.47      18.64
H      -1.83       7.47      18.70
H      -1.79       7.39      21.22
H       2.50       7.39      21.17
C      -0.65       7.84      10.83
C       0.36       7.31      22.82
C      -0.64       7.76      12.33
C       0.58       7.74      13.02
C       0.61       7.69      14.40
C      -0.61       7.67      15.12
C      -1.83       7.69      14.43
C      -1.85       7.74      13.04
C       1.54       7.45      19.23
C       0.32       7.48      18.54
C      -0.90       7.45      19.25
C      -0.87       7.41      20.64
C       0.35       7.39      21.33
C       1.56       7.41      20.62
N      -0.70       7.62      16.53
N       0.41       7.53      17.13
O      -1.79       7.88      10.26
O      -0.77       7.27      23.40
O       1.50       7.27      23.40
O       0.48       7.87      10.25
