22

C      11.18       4.85      20.53
C      10.47       5.00      21.73
H       9.39       5.11      21.70
H      10.65       5.17      23.87
C      11.17       5.04      22.93
H      13.14       4.49      19.69
C      12.58       4.93      22.90
C      12.57       4.66      20.61
H      11.88       6.24      25.23
C      13.38       5.08      24.13
N      13.26       4.71      21.75
H      13.31       6.49      27.23
H      16.41       4.35      25.50
C      12.88       5.80      25.23
N      14.92       5.44      26.45
C      13.67       5.95      26.36
H      15.10       3.99      23.40
C      15.40       4.75      25.39
C      14.67       4.55      24.23
O      11.19       4.84      18.14
O       9.26       5.27      19.15
C      10.49       4.97      19.22
