28

C       6.03      -2.63      12.02
C      10.65       0.94      17.25
H       5.02      -2.53      11.62
C       6.90      -3.64      11.61
C       9.96      -2.83      13.71
H       6.59      -4.36      10.86
C       8.17      -3.68      12.17
N       6.39      -1.71      12.94
H       8.88      -4.45      11.86
C       8.58      -2.74      13.13
N       6.91       0.29      14.61
H       8.34       3.33      16.59
C       7.64      -1.75      13.49
N       7.40       1.21      15.46
H       9.80       4.54      18.21
C       7.88      -0.65      14.44
N       8.98      -0.39      15.17
H      12.28       1.25      18.64
C       8.64       0.77      15.78
N      11.09       2.95      18.51
H      10.93      -0.08      17.00
C       9.51       1.52      16.68
H      10.15      -2.03      14.43
C       9.21       2.85      17.02
H      10.71      -2.78      12.91
C      10.02       3.52      17.92
H      10.09      -3.81      14.21
C      11.40       1.68      18.16
