30

C      19.06       8.99      10.72
C      19.03      13.10       4.92
C      17.97       8.97       9.84
C      17.96       9.79       8.69
C      20.11      12.26       5.19
C      20.12      11.45       6.34
C      17.96      13.20       5.82
C      18.00      12.44       6.99
C      20.13       9.88      10.51
C      20.08      10.73       9.41
C      19.03      10.70       8.48
C      19.05      11.55       7.27
N      16.95       9.64       7.76
N      21.13      10.52       6.51
H      17.15       8.28      10.04
H      20.93      12.21       4.47
H      17.13      13.87       5.61
H      17.21      12.55       7.73
H      20.96       9.90      11.21
H      20.88      11.46       9.26
O      20.16      14.17       3.13
O      17.93       7.67      12.32
O      20.20       7.77      12.39
O      17.89      14.27       3.21
H      16.84      10.35       7.05
H      16.11       9.15       8.04
H      21.24      10.10       7.42
H      21.98      10.65       5.97
C      19.02      13.90       3.66
C      19.06       8.08      11.89
