32

H       2.54       2.82      15.28
H       4.18       3.61      19.17
H       4.71       6.54      15.39
H       3.96       3.90      21.62
H      -0.77       6.19      18.91
H      -1.16       5.67      21.02
C       1.02       5.33      20.69
C       3.06       3.61      14.75
C       3.21       3.59      13.37
C       3.58       4.70      15.46
C       3.84       4.64      12.67
C       4.39       5.69      13.42
C       4.29       5.72      14.80
C       1.97       4.87      23.04
C       3.84       4.70      11.16
C       2.04       4.85      21.54
C       3.16       4.25      20.96
C       3.30       4.09      19.59
C       2.29       4.56      18.74
C       1.14       5.18      19.29
C       0.13       5.78      18.40
C      -0.15       6.09      21.23
Br       2.57       2.07      12.41
Br       5.23       7.17      12.56
N       2.41       4.37      17.35
N       3.43       4.92      16.85
O       0.82       4.79      23.59
O       3.09       4.91      23.65
O       2.69       4.85      10.63
O       4.95       4.64      10.57
O       0.23       5.84      17.18
O      -0.03       7.15      21.83
