20

O      12.34       7.32       8.25
O       7.31      12.35       8.25
F      11.57       9.77       7.64
F       9.76      11.58       7.64
F       6.96       8.87      11.93
F       8.86       6.97      11.93
H       6.26       8.08      10.21
H       8.07       6.27      10.21
C       7.22       8.35      10.66
C       8.35       7.23      10.66
C      11.36       7.18       9.04
C       7.17      11.37       9.04
C       9.15       8.18       9.80
C       8.17       9.16       9.80
C      10.34       8.28       9.07
C       8.27      10.35       9.07
C      10.47       9.48       8.36
C       9.47      10.48       8.36
O      11.13       6.20       9.83
O       6.19      11.14       9.83
