18

C      18.86       7.87      11.78
H      16.91       4.10      12.30
C      19.60       7.00      12.60
C      20.23       7.86      13.51
N      17.00       2.39      13.55
H      20.69       3.70      12.34
H      21.05       5.78      11.67
N      17.97       1.86      14.37
N      19.08       9.15      12.15
N      19.95       9.16      13.21
C      17.51       3.51      12.99
H      19.95       2.42      14.85
H      18.25       7.63      10.92
C      19.92       4.41      12.70
H      20.90       7.61      14.32
C      20.16       5.67      12.30
C      19.06       2.65      14.29
C      18.84       3.71      13.39
