33

H       6.26       8.01       5.94
H       2.36       9.03       7.44
H       1.24      11.14       6.69
H       1.21      13.13       5.29
H       6.05      13.36       1.80
H       7.21      11.32       2.60
H       2.33      15.91       3.29
H       1.12      14.66       3.02
H       1.69      15.00       4.67
H       7.28       9.35       4.10
C       4.34       7.24       7.68
C       5.40       8.68       5.92
C       4.32       8.42       6.77
C       3.20       9.27       6.78
C       3.17      10.42       5.98
C       4.25      10.68       5.09
C       5.37       9.78       5.05
C       2.08      11.34       6.02
C       2.07      12.46       5.24
C       3.13      12.75       4.32
C       4.22      11.82       4.25
C       5.30      12.05       3.34
C       6.40      11.12       3.30
C       6.44      10.04       4.12
C       3.11      13.90       3.47
C       4.17      14.06       2.55
C       5.25      13.17       2.51
C       4.19      15.16       1.53
C       2.01      14.92       3.62
O       5.48       6.80       8.03
O       3.21       6.79       8.05
O       5.34      15.59       1.18
O       3.06      15.55       1.07
