13

O       7.93       4.36      13.93
O       9.87       4.09      15.09
O       8.48       2.45      12.30
H       9.27       1.64      14.05
H      10.43       2.59      13.05
C       9.38       2.52      13.40
O       6.55       1.97      10.66
O       7.76       0.43       9.51
C       9.02       3.77      14.19
C       8.87       1.63      11.20
H       9.57       2.17      10.54
H       9.33       0.70      11.54
C       7.60       1.32      10.40
