16

H      -0.62      12.21      16.25
H       3.59      12.76      18.84
C       2.68      11.95      17.05
C       0.29      13.02      18.04
H      -0.62      13.46      18.44
H       3.59      11.51      16.66
C       1.48      11.02      15.05
C       1.48      13.91      20.06
O       0.35      14.23      20.55
O       2.61      10.69      14.56
O       0.34      10.75      14.54
C       1.49      11.79      16.33
C       0.29      12.34      16.83
C       2.68      12.63      18.26
C       1.48      13.17      18.76
O       2.62      14.18      20.57
