36

O       1.96      15.56      20.15
O       4.83      22.07      30.62
H       3.01      15.92      27.69
H       1.80      21.51      23.46
H       3.83      16.33      23.13
H       3.76      21.44      27.66
O       2.89      15.73      25.19
O       2.22      21.73      25.92
H       3.40      19.08      31.24
H       1.98      18.39      19.85
H       3.25      17.03      29.86
H       1.74      20.43      21.27
H       2.55      15.88      24.29
H       2.21      21.53      26.88
C       3.06      16.04      20.57
C       3.68      21.63      30.33
C       3.56      20.39      29.50
C       2.91      17.24      21.44
C       3.30      18.00      29.38
C       2.13      19.51      21.69
C       3.41      19.14      30.15
C       2.29      18.39      20.90
C       3.51      20.48      28.12
C       3.26      17.19      22.78
C       3.25      19.34      27.31
C       2.93      18.26      23.67
C       3.23      18.07      27.97
C       2.44      19.47      23.08
C       2.99      19.39      25.89
C       3.04      18.19      25.11
C       3.04      16.93      25.82
C       2.52      20.58      25.23
C       3.10      16.89      27.20
C       2.23      20.60      23.89
O       4.23      15.58      20.33
O       2.57      22.16      30.68
