40

C      24.97      15.19       3.38
C      23.99      21.99      -2.96
C      23.99      16.06       3.87
H      19.39      18.77       0.24
H      24.35      18.12      -2.94
H      24.35      15.53       0.04
C      25.07      14.99       2.00
C      25.07      19.98      -3.76
C      23.27      19.81      -2.14
C      23.27      16.56       1.60
H      23.91      16.22       4.95
H      23.91      23.07      -2.95
C      22.47      19.01      -1.18
C      22.47      17.40       0.68
H      25.83      14.30       1.62
H      25.83      19.52      -4.38
C      23.13      21.21      -2.18
C      23.13      16.72       2.99
H      22.38      17.40       3.39
H      22.38      21.70      -1.56
C      23.13      18.10      -0.35
H      24.21      17.99      -0.44
C      20.25      20.10      -1.86
C      20.25      16.88       1.85
O      19.71      21.12      -1.30
C      21.10      19.23      -0.98
C      21.10      17.63       0.86
O      19.72      17.58       2.78
C      20.44      18.57       0.06
O      20.07      19.73      -3.06
O      20.07      15.64       1.65
C      24.25      19.21      -2.95
C      24.25      15.68       1.12
O      26.63      21.59      -5.42
O      26.63      13.57       3.82
C      25.92      22.21      -4.55
C      25.92      14.51       4.32
O      25.99      23.46      -4.32
O      25.99      14.92       5.52
C      24.97      21.38      -3.75
