10

O      -0.62       9.05       1.18
C       0.65      10.52       5.37
C       0.68      10.17       4.07
C       0.59      10.85       6.54
O      -0.62      11.78       8.28
O       1.64       9.16       0.87
C       0.55       9.33       1.55
O       1.65      11.68       8.43
C       0.68       9.86       2.88
C       0.55      11.46       7.84
