48

H       1.10      10.94      11.39
H      -4.55       6.96      13.42
O      -1.33      11.40      14.86
O      -2.14       6.55       9.83
O      -3.40       9.12      19.00
O      -5.39       9.03      18.06
O       1.97       8.38       6.72
O       0.21       9.42       5.88
H      -1.18      11.92      15.70
H      -2.25       6.03       8.98
O       0.85      12.03       9.47
O       1.83      11.00       7.79
O      -5.31       6.48      15.34
O      -4.25       6.48      17.27
O       1.50      11.23      13.70
O       0.67       9.50      14.77
O      -4.17       8.40      10.06
O      -4.89       6.59      11.07
C      -2.74      11.45      17.27
C      -0.72       6.52       7.43
C      -0.68       7.70       8.34
C      -2.74      10.25      16.40
C       0.27       9.83       9.04
C      -3.71       8.13      15.76
C       0.14       8.82       8.10
C      -3.51       9.12      16.69
C      -1.41       7.63       9.55
C      -2.04      10.32      15.18
C      -1.28       8.63      10.55
C      -2.18       9.28      14.20
C      -0.32       9.66      10.33
C      -3.15       8.27      14.45
C      -1.98       8.59      11.82
C      -1.47       9.30      12.95
C      -0.26      10.03      12.72
C      -3.18       7.84      12.06
C       0.21      10.32      11.47
C      -3.66       7.57      13.32
N      -4.16       9.07      18.03
N       0.85       8.89       6.79
N       1.05      11.04       8.75
N      -4.49       6.94      16.14
N       0.69      10.30      13.82
N      -4.13       7.56      10.97
O      -1.62      12.09      17.35
O      -1.86       5.92       7.32
O      -3.82      11.82      17.80
O       0.36       6.14       6.90
