22

H       2.59       3.90       3.17
H       5.99       4.92       5.67
C       5.46       4.34       2.76
C       6.55       4.87       0.46
H       5.75       6.46      -5.77
C       5.88       4.82      -0.75
C       6.32       5.42      -1.92
C       6.01       4.50       1.68
C       6.63       6.06      -2.92
H       8.61       8.20      -3.02
N       2.83       4.45       5.21
N       3.90       4.78       5.99
N       7.15       8.05      -5.90
C       3.27       4.18       3.97
N       8.05       8.61      -5.02
C       5.02       4.70       5.25
Cl       4.32       4.06      -0.79
Cl       8.14       5.58       0.49
C       4.67       4.34       3.93
C       6.53       7.03      -5.27
C       7.99       7.93      -3.87
C       7.02       6.91      -3.96
