36

Cl       5.12      11.79      16.61
Cl       4.88       8.40      20.91
Cl       8.38       6.94      20.45
Cl       7.94      12.15      17.41
Cl       8.53       7.07      17.34
Cl       7.37      12.21      20.47
O       6.74       8.48      11.47
O       5.83      10.30      26.49
O       5.98       8.02      26.47
O       6.37      10.71      11.44
C       6.37       9.57      12.00
C       6.05       9.17      25.95
C       7.68       9.87      24.13
C       5.90       8.29      14.16
C       5.76      10.67      14.25
C       5.60       8.80      23.48
C       8.08       9.89      22.79
C       6.14       8.24      15.54
C       5.90      10.60      15.65
C       5.98       8.90      22.14
C       7.23       9.42      21.78
C       6.51       9.44      16.25
C       6.46       9.26      24.49
C       6.00       9.52      13.46
C       7.88       8.35      19.60
C       7.47      10.71      18.22
C       7.78       8.35      18.20
C       7.49      10.71      19.63
C       7.22       9.49      17.52
C       7.55       9.51      20.34
Cl       8.65      10.63      25.32
Cl       5.30       6.90      13.36
Cl       5.17      12.14      13.58
Cl       4.05       8.21      23.91
Cl       9.63      10.50      22.36
Cl       5.71       6.81      16.39
