16

F      24.45      12.40      21.38
F      19.52      15.10      19.39
O      18.23      15.75      21.83
O      25.81      11.87      18.95
O      19.30      15.00      23.72
C      19.18      15.16      22.45
S      22.34      13.61      18.32
S      21.62      13.85      22.45
O      24.62      12.37      17.05
C      24.79      12.33      18.32
C      23.56      12.90      20.51
C      20.41      14.59      20.26
C      23.70      12.87      19.13
C      20.27      14.61      21.64
C      21.60      13.96      19.84
C      22.36      13.52      20.94
