42

H       8.03      11.14       8.14
C      10.06      11.38       1.81
H      12.33      10.16       5.87
H      10.45      12.18       9.85
H      10.54      13.21       8.54
H      12.50      12.36       6.67
H      11.93      12.22       5.12
H       8.90      12.44       6.05
H       8.58       8.46       5.30
H       8.80       7.56       7.45
H      10.20       6.72       7.49
H      10.70       8.07       4.45
H       6.81      11.49       6.13
N      10.17      12.32       8.87
N      11.97      11.76       6.04
N       9.71       7.51       7.91
N       7.73      11.39       5.69
H       7.60      11.32       4.68
O      11.19      11.67       1.27
O      10.93       8.46      12.72
H      11.47       8.59       8.08
O       8.66       8.34      12.69
O      12.11       9.17       5.87
H      11.71      10.93       8.29
O       9.85      12.75       6.29
O       7.86       9.03       5.66
O      10.25       7.97       5.32
H       7.69       9.40       8.05
C       9.80       8.69      12.20
O       8.91      11.59       1.34
C      10.47       8.71       7.64
C      10.66      11.21       8.06
C      10.60      11.58       6.53
C      10.11      10.83       3.14
C       9.80       9.94       8.32
C      10.74       9.05       6.12
C       9.96      10.36       5.75
C       8.44      10.21       6.19
C       8.39      10.18       7.74
C      10.05      10.60       4.33
C       9.75       9.66       9.75
C       9.77       9.34      10.92
