16

C      18.32       2.53      10.45
C      21.01       2.54      15.57
C      19.01       2.53      11.77
C      20.31       2.53      14.25
O      18.31       1.44       9.78
C      18.95       3.67      12.59
O      21.01       3.63      16.24
C      20.37       1.40      13.43
O      17.76       3.59      10.02
H      18.38       4.53      12.25
O      21.56       1.48      16.00
C      19.60       3.67      13.82
C      19.72       1.40      12.20
H      19.75       0.54      11.53
H      19.57       4.53      14.48
H      20.94       0.54      13.77
