41

Cl       8.93       9.75       6.48
Cl       9.80      14.66       4.21
H       6.70      10.74       1.48
H      11.35      10.84       3.28
Cl       6.09       5.37      -2.25
Cl       9.19       8.16      -5.80
Cl      10.37       9.74      -3.38
O       6.13       8.25      -6.40
H       6.72       2.98      -5.19
H       6.82       6.23      -0.33
H       6.14      11.92       3.42
H      10.68       9.33       0.09
O       7.46       6.98      -0.29
O       7.00      12.00       3.88
O      11.10       9.71       0.94
H       7.00       8.68      -6.20
O       7.03       3.79      -4.74
C       9.48      13.38       5.29
C       9.46      12.02       4.96
C       6.61       4.88      -5.42
C       6.92       6.22      -5.12
C       9.30      11.41       3.62
C       6.25       6.92      -6.16
C      10.33      10.84       2.89
C      10.09      10.25       1.64
C       8.75      10.21       1.15
C       7.71      10.80       1.89
C       9.17      11.42       6.19
C       7.97      11.41       3.10
C       7.82       7.26      -1.57
C       7.28       6.55      -2.66
C       8.76       8.29      -1.80
C       7.63       6.83      -4.00
C       8.63       7.81      -4.19
C       9.19       8.52      -3.12
N       9.28       9.05      -0.73
N       5.82       4.79      -6.50
N       5.61       6.08      -6.97
N       9.05      12.33       7.17
N       9.22      13.57       6.60
N       8.35       9.56      -0.01
