39

C      10.26       5.74      16.04
C       9.80       5.33      17.30
C      10.12       6.07      18.45
C      10.92       7.21      18.33
C      11.38       7.65      17.08
H       7.94       4.40      15.44
C      11.03       6.90      15.94
H      11.92       5.19      13.92
H      11.35       3.80      11.95
H       9.08       2.70      11.84
H      11.53       6.20      20.76
H       7.75       4.83      19.18
H       7.18       4.06      21.50
H       8.85       4.42      23.33
H      11.50       9.77      18.81
H      13.17       8.35      15.10
H      14.56      10.42      15.04
H      14.37      12.06      16.91
H       9.23       4.41      17.40
H      11.19       7.76      19.23
H      11.35       7.24      14.95
N       8.44       3.50      13.64
N      10.24       5.35      22.12
N      12.94      10.97      17.95
C       8.73       4.28      14.69
C       9.97       4.93      14.84
C      10.93       4.75      13.84
C      10.62       3.95      12.74
C       9.37       3.34      12.68
C      10.54       5.77      20.88
C       9.69       5.60      19.78
C       8.45       4.97      20.00
C       8.13       4.55      21.28
C       9.04       4.75      22.31
C      12.18       9.86      17.96
C      12.21       8.87      16.97
C      13.09       9.08      15.89
C      13.87      10.23      15.86
C      13.77      11.15      16.91
