16

C       6.26      10.41       8.77
C       8.49      11.91       8.04
O       6.31       7.68       8.59
O       6.20      14.67       8.53
O       8.45      14.64       8.22
H       5.38       9.83       9.05
O       8.55       7.65       8.28
C       7.44       8.25       8.43
H       9.37      12.49       7.77
C       7.31      14.08       8.38
F       5.03      12.37       9.15
F       9.72       9.96       7.66
C       7.31      12.58       8.40
C       7.44       9.74       8.41
C       6.21      11.80       8.77
C       8.55      10.53       8.05
