23

N      13.16      10.05       4.49
O      22.20      10.19       2.47
O      22.31       8.59       4.06
H      13.39      12.05       4.02
H      15.85      11.92       3.70
H      15.56       7.68       4.53
H      13.12       8.02       4.90
H      17.46      11.17       2.33
H      19.93      11.02       2.03
H      20.14       7.99       5.06
C      13.92      11.11       4.14
C      15.29      11.02       3.95
C      15.94       9.78       4.09
C      15.13       8.68       4.43
C      13.77       8.85       4.63
C      17.39       9.66       3.89
C      18.04      10.48       2.95
C      19.42      10.39       2.77
H      17.67       8.13       5.39
C      20.18       9.49       3.53
C      19.54       8.67       4.46
C      18.16       8.75       4.64
C      21.67       9.44       3.32
