28

O       4.40      21.03       7.04
F       0.96      20.75       9.07
F       4.49      18.35       6.99
H      -0.33      17.08      10.82
C       0.65      18.47       8.58
H      -0.06      18.78      11.28
C       2.49      17.23       7.49
H       1.56      15.80       5.25
H       3.03      16.68       4.79
H       3.07      14.91       4.95
H       4.13      15.97       6.95
H       2.68      15.10       7.42
C       1.47      19.60       8.57
C       3.24      18.41       7.50
H      -1.72      18.15      11.12
C       2.77      19.62       8.03
C       3.61      20.86       8.03
C       1.20      17.30       8.03
H      -1.12      19.54       9.12
H      -1.40      17.86       8.65
O       0.57      15.22       8.97
C       0.36      16.06       8.03
O      -0.50      15.94       7.10
C      -0.72      18.52       9.21
C      -0.70      18.11      10.69
O       3.47      21.65       9.02
C       3.04      15.97       6.86
C       2.65      15.83       5.37
