28

C       4.28       8.90      10.09
C      -5.35       8.74       9.96
H       1.66       6.74      10.45
C       1.48       8.89      10.40
C       0.07       8.88      10.47
H       1.64      11.05      10.33
H       4.14       6.76      10.14
C      -1.15       8.83      10.43
C      -2.56       8.80      10.31
H       4.12      11.05      10.07
H      -2.72      10.92       9.91
H      -2.72       6.67      10.68
H      -5.20      10.85       9.60
H      -5.20       6.63      10.38
O      -7.42       7.59       9.84
O       6.37      10.00       9.89
O       6.30       7.74       9.77
O      -7.41       9.85       9.64
C      -6.83       8.72       9.81
C       5.75       8.89       9.90
C       2.20       7.68      10.37
C      -3.27       9.98      10.01
C      -3.27       7.59      10.44
C       2.19      10.11      10.30
C       3.58       7.69      10.21
C      -4.65       9.94       9.84
C      -4.65       7.56      10.27
C       3.57      10.11      10.15
