16

O      17.26      13.87      26.11
O      14.97      13.74      26.02
S      14.61      11.38      27.56
S      17.56       9.03      29.35
O      17.19       6.66      30.89
O      14.91       6.53      30.79
C      16.14      13.33      26.38
C      16.04       7.07      30.53
C      17.22      11.41      27.74
C      14.95       9.00      29.17
C      16.15      12.11      27.19
C      16.02       8.30      29.72
C      15.39      10.13      28.45
C      16.78      10.27      28.46
Cl      18.88      11.81      27.60
Cl      13.30       8.60      29.31
