48

H       7.82       1.86      10.79
H      13.75      12.84       5.39
H       8.80       6.05      10.90
H      12.77       8.66       5.29
H       8.87       1.69       8.56
H      12.70      13.02       7.63
H      12.05       5.39       8.91
H       9.52       9.31       7.27
H       7.21       3.14      12.73
H       8.24       4.55      13.10
H       6.68       4.78      12.28
H      14.36      11.56       3.45
H      14.89       9.92       3.90
H      13.33      10.16       3.09
H      10.41       4.57       6.68
H      10.85       2.89       7.04
H       9.26       3.27       6.35
H      11.16      10.14       9.51
H      12.31      11.44       9.83
H      10.72      11.82       9.14
C      12.19       7.36       8.09
C       9.38       7.34       8.10
C      11.49       8.50       7.62
C      10.08       6.21       8.57
C       7.89       7.39       8.04
C      13.68       7.32       8.15
C       8.22       3.97      11.01
C      13.35      10.73       5.18
C       8.81       5.08      10.39
C      12.76       9.62       5.80
C       9.42       4.99       9.13
C      12.15       9.71       7.06
C       9.44       3.76       8.45
C      12.13      10.94       7.74
C       8.86       2.65       9.07
C      12.71      12.05       7.11
C       8.26       2.75      10.33
C      13.31      11.95       5.86
C      11.48       6.25       8.55
C      10.09       8.45       7.64
C       7.55       4.11      12.35
C      14.02      10.59       3.83
C      10.02       3.62       7.06
C      11.55      11.09       9.12
O       7.35       8.54       8.08
O      14.22       6.16       8.10
O       7.27       6.28       7.93
O      14.30       8.42       8.26
