47

C       1.64       1.29      16.23
H      -2.06      -2.37      19.38
C       2.53       2.48      15.99
H       0.18      -0.75      16.09
C       3.34       2.99      17.01
H       0.62       0.94      20.06
C       4.15       4.09      16.76
H      -1.70      -4.15      18.09
C       4.16       4.70      15.50
H      -3.18      -3.24      17.69
C       3.36       4.18      14.48
H      -1.10      -6.09      16.82
C       2.55       3.07      14.72
C       4.98       5.90      15.22
H      -1.63      -7.69      14.98
O      -2.22      -1.32      21.66
H      -4.60      -4.98      13.47
O      -0.40      -0.07      22.13
H      -4.04      -3.35      15.27
O       1.35       1.20      17.62
H       2.15       0.36      15.89
O      -1.45      -2.57      16.74
H       0.71       1.40      15.65
H       3.31       2.53      17.99
O      -0.02      -7.23      12.55
H       4.80       4.49      17.55
O      -2.86      -8.50      12.93
H       3.36       4.68      13.50
O       4.92       6.48      14.12
H       1.91       2.69      13.93
O       5.76       6.29      16.22
H       6.32       7.11      15.94
C      -1.14      -0.70      21.31
C      -0.77      -0.71      19.86
C      -1.34      -1.65      19.00
C      -0.98      -1.66      17.65
C      -0.08      -0.71      17.15
C       0.48       0.23      18.02
C       0.15       0.22      19.39
C      -2.25      -3.65      17.27
C      -2.54      -4.61      16.16
C      -1.86      -5.84      16.08
C      -2.16      -6.74      15.06
C      -3.15      -6.43      14.12
C      -3.81      -5.20      14.19
C      -3.50      -4.29      15.19
C      -3.59      -7.45      13.12
