14

C       8.54       1.22       8.39
H       7.87       0.79       9.13
C       8.67       3.84       8.25
C       9.20      -1.01       7.65
H       9.94       0.82       6.84
O       8.19      -4.21       7.05
O       8.01       5.92       8.99
O       9.89      -4.23       8.58
O       9.54       5.75       7.29
C       8.62       2.62       8.30
C       9.07      -3.66       7.78
C       8.75       5.27       8.17
C       9.16      -2.22       7.70
C       9.27       0.39       7.58
