48

H      10.24       5.41       7.51
H      17.17       7.71       5.48
H      10.23       9.54       7.68
H      17.16       7.28       9.60
H      11.62       3.91       6.46
H      11.72       3.72       8.23
H      14.05       2.78       7.98
H      12.87       1.82       7.07
H      13.93       2.96       6.21
H      13.99       5.80       4.87
H      15.45       6.35       4.00
H      14.02       7.82       2.53
H      13.47       6.13       2.44
H      12.57       7.30       3.42
H      13.47       9.93       9.50
H      12.03      10.92       9.09
H      13.49      12.46       7.72
H      14.09      12.38       9.40
H      14.91      11.45       8.10
H      15.79       8.09      11.22
H      15.66       6.31      11.17
H      13.33       6.46      12.13
H      14.52       7.22      13.21
H      13.47       8.24      12.19
C      12.25       6.28       7.49
C      15.16       7.62       6.34
C      12.23       8.69       7.57
C      15.14       7.40       8.74
C      10.86       6.30       7.54
C      16.56       7.60       6.38
C      10.84       8.64       7.63
C      16.54       7.38       8.71
C      12.96       7.49       7.52
C      14.44       7.51       7.52
C      12.31       3.88       7.31
C      13.36       2.80       7.14
C      14.43       6.64       4.30
C      13.57       7.00       3.10
C      13.03      10.61       8.75
C      13.93      11.80       8.48
C      15.09       7.25      11.14
C      14.04       7.29      12.23
N      10.19       7.47       7.61
N      17.21       7.48       7.54
O      13.00       5.14       7.40
O      14.49       7.80       5.16
O      12.91       9.88       7.50
O      14.39       7.33       9.87
