9

N      13.40       8.46       9.49
C      14.09       8.27      12.87
C      13.49       8.56      10.83
H      13.86       7.67       9.04
N      12.81       9.47      11.58
N      13.21       9.25      12.90
H      14.58       7.88      13.76
H      12.61       8.93       9.03
N      14.30       7.79      11.62
