40

H       9.46      -1.48      14.83
H       7.76      -2.85      18.52
H       1.59      -3.94      10.30
H      -0.06      -5.39      13.97
C       8.73      -2.13      16.74
C       8.62      -1.93      15.36
C       7.46      -2.28      14.67
C       6.38      -2.87      15.39
C       6.49      -3.09      16.79
C       7.66      -2.70      17.44
C       5.20      -3.25      14.70
C       4.18      -3.58      14.11
C       2.99      -3.96      13.42
C       2.88      -3.73      12.02
C       1.70      -4.10      11.37
C       0.65      -4.70      12.07
C       0.77      -4.93      13.44
C       1.92      -4.56      14.14
C       5.38      -3.71      17.59
C       7.40      -2.03      13.19
C       1.99      -4.82      15.62
C       3.98      -3.10      11.22
O      -1.49      -5.71      12.03
O      -0.67      -4.79      10.11
H       5.72      -4.65      18.06
H       4.51      -3.94      16.97
H       5.06      -3.04      18.40
H       7.49      -0.96      12.97
H       6.45      -2.38      12.76
H       8.22      -2.54      12.66
H       1.19      -4.27      16.15
H       2.95      -4.50      16.04
H       1.85      -5.88      15.84
H       4.34      -3.78      10.44
H       4.84      -2.83      11.85
H       3.63      -2.18      10.72
O      10.94      -1.29      16.75
O       9.97      -1.86      18.73
C      -0.60      -5.10      11.35
C       9.97      -1.73      17.46
