48

C      -2.16      11.49       5.82
O       3.68      18.64       4.82
C       2.10      16.35       4.64
O      -3.68       9.97       4.82
C      -2.10      12.25       4.64
C       1.24      15.26       4.54
C      -1.24      13.34       4.54
H       6.16      20.78      10.18
H      -6.17       7.83      10.18
C       0.43      14.90       5.63
C      -0.43      13.70       5.63
H       4.26      19.29       9.58
H      -4.26       9.31       9.58
C       0.46      15.70       6.79
C      -0.46      12.91       6.79
H       5.16      20.08       5.42
H      -5.16       8.53       5.42
C       5.90      20.60       9.14
C      -5.90       8.01       9.14
C       1.32      16.78       6.89
C      -1.32      11.82       6.89
H       6.99      21.53       6.18
H      -6.99       7.07       6.18
C       4.84      19.77       8.80
C      -4.85       8.83       8.80
H       2.76      16.62       3.82
N       6.66      21.22       8.21
H      -2.76      11.98       3.82
C       4.54      19.55       7.44
N      -6.67       7.38       8.21
C      -4.54       9.06       7.44
H       1.23      14.65       3.64
N       3.50      18.68       7.12
H      -1.24      13.96       3.64
C       5.33      20.21       6.48
N      -3.51       9.92       7.12
C      -5.33       8.40       6.48
H      -0.22      15.46       7.61
H       0.22      13.14       7.61
C       6.37      21.02       6.91
C      -6.37       7.59       6.91
H       1.30      17.38       7.81
H      -1.30      11.23       7.81
C       3.16      18.22       5.86
C      -3.16      10.39       5.86
H       2.95      18.37       7.93
H      -2.95      10.23       7.93
C       2.16      17.11       5.82
