26

C      10.25      25.13       7.91
H      10.85      21.32       4.11
C      12.92      24.15       7.18
H       8.54      22.12       4.73
C      10.39      24.06       6.86
H       8.28      23.84       6.51
C      11.68      23.62       6.50
H      13.30      23.43       3.56
C      11.82      22.63       5.52
H      15.68      22.92       3.11
C      10.71      22.10       4.87
H      15.56      20.21       6.54
C       9.43      22.54       5.22
H      13.18      20.88       6.85
C       9.28      23.51       6.22
C      13.86      22.72       4.17
C      15.18      22.43       3.94
N      13.16      22.16       5.21
C      15.92      21.53       4.81
O       9.13      25.25       8.52
C      15.10      20.94       5.87
O      11.24      25.88       8.14
C      13.79      21.28       6.04
O      13.22      23.70       8.33
O      13.66      24.95       6.51
O      17.14      21.27       4.67
