18

C       5.86       9.24       1.18
C       4.67       6.56      -1.18
C       4.50       4.78      -3.14
C       6.03      11.02       3.14
N       7.02       8.23      -0.72
N       3.51       7.58       0.72
C       4.74       7.50      -0.15
C       5.79       8.31       0.15
O       7.42       9.31      -1.14
O       7.51       7.12      -0.91
O       5.63       4.41      -3.60
O       4.90      11.39       3.60
C       4.56       5.76      -2.09
C       5.97      10.05       2.09
O       3.10       6.50       1.14
O       3.02       8.69       0.91
O       3.34       4.41      -3.51
O       7.19      11.40       3.51
