22

C       7.51       5.31       5.92
C       7.30       7.20       7.23
C       8.65       7.31       7.47
H       6.58       7.91       7.65
H       9.31       3.44       4.98
H      11.77       3.50       5.50
H      11.42       7.01       7.65
C       9.24       8.43       8.29
C       8.23       9.35       8.98
H       7.59       9.88       8.26
H       7.59       8.80       9.68
N       6.73       6.22       6.46
H       9.91       8.00       9.05
H       9.89       9.02       7.63
H       8.77      10.12       9.55
N      11.64       5.26       6.61
F       6.94       4.37       5.15
C       9.73       4.24       5.58
C      11.08       4.27       5.86
C      10.89       6.24       7.10
C       9.49       6.29       6.91
C       8.91       5.26       6.11
