26

H       4.13       6.93       1.79
H       5.43       9.72      -1.78
H       2.00      10.76       1.62
H       3.18       8.61       1.75
Br       4.96       4.37       2.50
H       7.47       5.84      -1.68
H       6.35       8.02      -1.76
Br       4.55      12.25      -2.53
O       2.45      13.58      -1.02
O       7.00       3.01       0.95
O       1.41      12.89       0.87
O       8.08       3.72      -0.91
C       2.23      12.73      -0.10
C       7.23       3.87       0.03
C       6.47       5.15       0.08
C       3.02      11.46      -0.13
C       5.51       5.49       1.05
C       4.86       6.73       1.01
C       4.00      11.13      -1.08
C       4.68       9.91      -1.02
C       2.76      10.51       0.88
C       3.43       9.30       0.94
C       6.73       6.10      -0.92
C       6.09       7.33      -0.96
C       5.13       7.67       0.01
C       4.41       8.97      -0.02
