20

O       4.91       3.07       5.44
H       0.43       2.60       4.33
O       4.81       5.29       5.92
O      -1.96       3.06       6.59
O      -1.98       5.18       5.75
H       2.28       1.83       6.37
H       0.79       3.36       8.23
H       2.45       5.61       7.63
H       0.61       6.37       5.59
H       2.10       4.83       3.73
C       0.99       5.37       5.77
C       1.79       4.51       4.73
C       2.80       4.08       5.87
C       4.27       4.14       5.73
C      -1.39       4.13       6.17
C       1.90       2.84       6.19
C       0.91       3.26       5.06
C       0.09       4.14       6.10
C       1.10       3.69       7.23
C       1.98       4.94       6.90
