18

C      19.28      19.76      28.04
C      21.49      18.20      28.88
C      20.23      20.29      28.91
C      20.54      17.67      28.01
O      17.45      18.53      26.29
C      22.31      20.16      30.26
C      19.44      18.43      27.58
O      22.10      21.36      30.63
O      23.31      19.44      30.64
C      21.33      19.54      29.34
H      20.12      21.32      29.27
H      20.65      16.65      27.65
O      18.24      20.55      27.68
O      22.53      17.41      29.25
O      18.68      16.61      26.26
C      18.47      17.81      26.65
H      17.68      20.00      27.06
H      23.08      17.97      29.86
