26

Cl       2.83      -0.59       8.72
Cl       6.72      -5.03       7.06
O       1.35      -3.54      12.54
H       1.94      -2.02      10.74
O       8.09      -2.15       3.15
H       7.51      -3.66       4.96
H       4.21      -0.72       7.08
H       4.11      -5.70      10.63
O       2.49      -5.51      12.52
H       5.30      -4.93       8.67
H       5.34       0.03       5.07
O       6.95      -0.18       3.16
C       2.20      -4.36      12.05
C       7.23      -1.34       3.63
C       2.93      -3.92      10.83
C       6.50      -1.77       4.86
C       2.69      -2.66      10.27
C       3.37      -2.20       9.15
C       6.77      -3.01       5.43
C       6.13      -3.44       6.59
C       5.56      -0.95       5.48
C       4.93      -1.39       6.63
C       3.90      -4.72      10.22
C       4.57      -4.26       9.10
C       4.36      -3.00       8.49
C       5.15      -2.64       7.26
