83

H       2.97       4.68      17.27
H       5.99       4.55      19.56
H      -5.14      -1.63      19.42
H      -0.23       0.15      23.94
H      -3.20       4.96      15.60
H       3.31      -5.76      15.07
H      -0.95      -3.58      16.80
H       2.14       3.34      20.34
H       5.34      -1.43      17.14
H      -2.31      -2.04      12.30
C       4.04      -0.55      19.98
C       0.03       2.83      16.78
C      -0.18       3.85      15.83
C       2.24      -1.75      16.26
C       2.18      -2.77      15.29
C       0.38       5.01      13.66
C       1.22       0.44      17.40
C       1.18      -3.78      13.20
C       1.05       1.82      16.58
C       0.73       4.08      14.79
C       1.25      -0.71      16.31
C      -2.05      -0.80      19.29
C       1.22      -2.73      14.28
C       2.53       0.49      18.30
C       4.69       0.68      20.23
C       0.06       0.18      18.48
C      -1.93      -0.15      20.51
C      -3.01      -0.11      21.55
C       5.64       0.92      21.37
C       1.94       2.09      15.48
C       1.89       3.31      14.75
C       0.27      -0.72      15.25
C       0.18       0.79      19.78
C       0.27      -1.71      14.25
C       3.37       1.64      18.39
C       4.31       1.77      19.43
C      -1.03      -0.72      18.31
C       3.49       2.87      17.50
C      -1.34      -1.79      17.25
C       1.29       1.64      20.36
C       3.55      -1.97      17.02
C      -0.60      -1.65      13.01
C       4.72       3.18      19.81
C      -0.76       0.55      20.79
C      -3.25      -1.71      19.16
C      -0.54       1.01      22.21
C      -1.35       4.81      15.93
C       3.22      -3.86      15.18
C       2.86      -0.59      19.21
I       3.66       4.04      13.81
I       3.32       0.76      14.57
I      -1.28       0.68      14.86
I       1.60      -2.22      19.71
I      -1.49       2.93      18.26
I       4.85      -2.37      20.72
O       5.97      -0.06      22.09
O       6.03       2.13      21.58
O      -3.44      -1.18      22.11
O       4.45       2.98      16.76
O       2.67       3.91      17.80
O      -0.86       5.22      13.39
O      -2.35      -1.74      16.56
O      -0.54      -2.87      17.33
O       2.00       1.21      21.27
O       1.34       2.90      19.93
O       3.78      -3.03      17.59
O       0.04      -4.26      12.96
O       4.51      -1.05      16.79
O      -0.13      -1.31      11.93
O      -1.87      -2.08      13.19
O       3.95       3.90      20.45
O       5.87       3.61      19.28
O      -3.20      -2.93      19.13
O      -4.40      -0.99      19.21
O      -0.47       2.18      22.57
O      -0.49      -0.07      22.99
O      -1.23       5.96      16.32
O       2.28      -4.09      12.63
O      -2.51       4.27      15.50
O       4.38      -3.67      14.84
O       2.67      -5.08      15.39
O       1.34       5.50      12.99
O      -3.40       1.07      21.82
