20

O       8.42       6.75       0.81
O       5.76       5.79      12.60
O       4.66       7.78      12.63
H       4.29       7.28       7.66
H       8.54       7.23       8.39
H       4.71       7.19       5.21
O       7.31       8.72       1.10
H       8.96       7.15       5.94
C       5.44       6.89      12.09
C       5.91       7.18      10.76
C       5.31       7.26       7.28
C       5.54       7.20       5.91
C       7.94       7.18       6.32
C       7.71       7.24       7.69
C       6.39       7.27       8.18
C       6.86       7.16       5.41
C       7.10       7.15       4.02
C       6.14       7.25       9.57
C       7.32       7.21       2.82
C       7.69       7.58       1.48
