18

H       0.05       6.02       9.79
O      -3.97      10.02      10.46
O       3.06      10.05       8.72
O      -3.80       7.77      10.40
O       3.18       7.79       8.94
O       0.81       6.59       9.55
H      -2.64       6.85      10.13
H       1.28      10.74       8.78
H      -0.51      10.43      10.05
O      -1.66       6.70       9.89
C      -3.27       8.95      10.42
C       2.53       8.87       8.89
C       0.31       7.85       9.53
C      -1.09       7.94       9.94
C       1.09       8.89       9.09
C      -1.81       9.05      10.34
O       0.51      10.13       8.87
O      -1.32      10.28      10.62
