14

C       0.86       5.11      15.02
C       0.85       6.15      13.02
C      -0.55       6.13      13.01
C      -0.54       5.10      15.02
C      -0.63       4.42      16.37
C       0.96       4.43      16.36
H       1.41       6.58      12.19
H      -1.12       6.54      12.19
H      -1.10       5.03      17.14
H      -1.11       3.43      16.37
N       1.58       5.63      14.04
N      -1.27       5.59      14.03
H       1.42       5.05      17.14
H       1.45       3.45      16.35
