16

C      24.95      12.20       6.68
O      24.37      11.49       5.79
C      32.43      12.31       6.83
O      33.01      12.95       7.77
C      30.16      11.72       5.84
C      27.21      12.97       7.53
C      30.96      12.37       6.76
C      26.41      12.28       6.64
C      28.58      12.78       7.24
C      28.80      11.95       6.11
O      32.99      11.58       5.94
O      24.38      12.84       7.63
H      30.57      11.11       5.05
H      26.80      13.56       8.35
S      30.07      13.28       7.95
S      27.31      11.41       5.43
