17

O       3.81       6.11       3.40
O       3.88       4.38      -3.35
H       7.14       5.08      -1.17
O       6.16       4.52      -3.34
H       2.83       4.95      -1.21
O       6.08       6.24       3.38
H       7.09       5.68       1.24
O       2.52       5.55       1.27
H       2.70       5.79       2.23
C       4.96       6.02       2.81
C       5.01       4.60      -2.78
C       4.95       5.65       1.39
C       4.99       4.97      -1.34
C       3.73       5.44       0.68
C       6.20       5.18      -0.65
C       3.77       5.10      -0.68
C       6.17       5.52       0.70
