24

N       6.29      11.04       9.10
N       5.55      20.41       8.57
H       4.55      11.01       7.96
H       4.29      13.47       7.91
H       3.86      18.00       6.89
H       6.91      17.65       9.96
H       6.71      15.76       9.79
H       4.59      15.73       7.55
C       5.28      11.66       8.45
C       5.15      13.04       8.41
C       6.11      13.85       9.04
C       7.17      13.20       9.70
C       7.21      11.79       9.73
C       6.03      15.30       9.07
C       5.27      16.12       8.31
C       4.57      18.41       7.61
C       5.35      17.58       8.42
C       6.24      18.21       9.31
C       6.31      19.59       9.34
C       4.71      19.80       7.71
Br       8.56      10.92      10.71
Br       8.57      14.19      10.51
Br       7.59      20.34      10.49
Br       3.66      20.82       6.53
