16

S      14.68      11.41      27.58
O      17.33      13.90      26.12
O      15.05      13.77      26.06
S      17.62       9.03      29.36
O      17.23       6.68      30.93
C      16.22      13.36      26.40
C      16.08       7.08      30.54
O      14.96       6.52      30.77
C      17.30      11.42      27.76
C      15.01       9.02      29.18
C      16.23      12.13      27.21
C      16.07       8.31      29.73
C      15.45      10.15      28.46
C      16.85      10.28      28.47
Br      19.12      11.83      27.62
Br      13.18       8.62      29.33
