12

C      10.85       4.43      15.40
C      12.05       2.67      24.35
O      11.88       4.59      14.64
O       9.65       4.69      15.12
O      13.24       2.56      24.75
C      11.84       3.10      23.00
C      11.71       3.28      21.79
C      11.58       3.45      20.47
C      11.44       3.58      19.25
C      11.28       3.77      17.94
O      10.98       2.38      25.02
C      11.11       3.97      16.74
