19

H       2.18      11.01      13.80
H      -0.85      10.75      13.36
H      -0.45       9.32      11.84
H       3.37      10.81      12.12
H       3.69       9.22       9.88
H       4.02      10.97       9.98
H       2.42      10.38       9.44
C       0.58       8.32      10.28
C       1.29      10.68      13.25
C       0.12      10.99      13.82
C       1.54      10.01      11.96
C       0.53       9.27      11.37
C       0.06      11.76      15.08
C       3.26      10.19      10.12
N       2.79      10.26      11.50
O      -0.55       7.95       9.80
O       1.71       7.87       9.87
O       1.16      11.97      15.70
O      -1.08      12.18      15.44
