38

H      10.31       9.00      20.93
H      11.47       9.06      23.12
H       6.04       8.97      20.72
H       5.72       9.03      27.52
H       4.57       9.08      25.33
H       9.99       8.98      27.73
S      12.01       9.20      25.84
S       4.02       9.20      22.61
O       9.35       8.85      18.65
O       7.11       9.24      18.60
O       6.68       8.88      29.80
O       8.92       9.27      29.86
H      11.38      10.71      27.25
H       4.66      10.69      21.19
C       8.22       9.03      19.20
C       7.82       9.07      29.25
O      11.91      10.72      26.42
O      13.07       9.26      24.88
O      12.06       8.30      26.97
O       4.13      10.71      22.01
O       2.97       9.27      23.57
O       3.97       8.29      21.49
C       9.35       9.00      21.45
C       9.30       9.00      22.85
C      10.50       9.03      23.63
C       6.93       9.02      21.34
C       6.83       9.02      22.74
C       5.58       9.05      23.46
C       6.68       9.03      27.01
C       6.73       9.01      25.61
C       5.53       9.04      24.82
C       9.10       9.03      27.11
C       9.20       9.02      25.71
C      10.45       9.05      24.99
C       8.17       9.02      20.70
C       8.04       9.00      23.51
C       7.86       9.04      27.75
C       8.00       9.01      24.94
