30

O       1.99       8.31       1.84
O       6.70       8.44      -1.96
H       6.34       8.38       4.78
H       6.54       8.33       2.29
H       2.05       8.35       4.47
H       6.61       8.37      -4.59
H       2.32       8.44      -4.85
H       2.15       8.50      -2.37
H       2.28       8.30       0.90
H       6.43       8.46      -1.02
C       4.10       8.49       6.24
C       4.52       8.24      -6.35
C       4.19       8.39       4.76
C       5.45       8.37       4.15
C       5.56       8.34       2.77
C       4.40       8.34       1.97
C       3.13       8.33       2.60
C       3.02       8.35       3.98
C       4.43       8.37       0.56
C       4.28       8.43      -0.66
C       4.29       8.45      -2.07
C       5.56       8.44      -2.71
C       5.64       8.40      -4.10
C       4.47       8.37      -4.86
C       3.21       8.43      -4.23
C       3.12       8.47      -2.85
O       5.21       8.65       6.86
O       5.66       8.24      -6.92
O       3.40       8.12      -6.94
O       2.95       8.44       6.79
