26

H       3.21       8.51       3.03
H       1.72      10.02       1.66
H       3.28      13.45       3.75
H       4.71      11.92       5.15
H       3.99      12.37       0.47
H       3.00      11.50      -0.72
H       3.40      13.23      -0.99
H      -1.08      13.93       3.37
H      -0.40      12.32       3.77
H       0.51      13.80       4.18
N       0.98      13.69      -0.02
N       0.09      13.94       1.00
N       1.65      12.66       1.80
O       5.47       9.79       5.99
O       5.12       8.03       4.59
C       4.94       9.20       4.96
C       4.04      10.13       4.17
C       3.20       9.59       3.19
C       2.38      10.42       2.43
C       2.42      11.81       2.65
C       3.25      12.37       3.62
C       4.05      11.51       4.39
C       3.15      12.47      -0.23
C       1.93      12.92       0.48
C       0.49      13.32       2.10
C      -0.16      13.34       3.43
