22

H      13.56       7.73      16.05
H       9.77      10.71      14.82
H       9.50       9.07      16.64
H      10.34       7.37      18.07
O      12.92       4.90      19.67
H      13.22       6.35      17.64
O      10.76       5.62      19.72
H      15.48       8.49      15.19
O      14.04       9.52      14.07
H      15.87       8.88      13.49
H      14.70       7.56      13.85
O      12.03      11.07      13.41
C      11.51       8.28      16.48
C      12.73       8.38      15.79
C      12.89       9.32      14.78
C      11.82      10.18      14.41
C      10.60      10.07      15.09
C      10.45       9.13      16.11
C      11.32       7.34      17.57
C      12.22       6.46      18.06
C      11.94       5.60      19.22
C      15.08       8.54      14.16
