10

H       5.30       8.97       6.99
H       8.06      11.42       3.78
F       5.70      11.57       7.44
F       7.67       8.82       3.33
C       6.19      10.88       6.41
C       7.17       9.51       4.36
C       5.91       9.52       6.28
C       7.46      10.87       4.50
N       6.42       8.85       5.23
N       6.95      11.54       5.54
