16

H      -4.55      12.09      11.06
C      -4.98      14.81       8.31
C      -4.67      15.17       9.62
H      -5.05      11.43       8.67
H      -5.13      15.57       7.54
O      -5.69      11.84       6.33
H      -4.57      16.22       9.88
O      -5.91      14.01       5.80
C      -4.33      14.62      12.04
O      -4.34      13.73      12.94
C      -4.54      14.20      10.61
C      -4.67      12.84      10.28
O      -4.18      15.87      12.25
C      -4.96      12.48       8.97
C      -5.15      13.46       7.98
C      -5.61      13.07       6.61
