26

C       3.27       6.99       4.23
C      -3.27       6.23      -4.23
H       3.17      10.09       3.17
C       1.00       6.38       1.33
C      -1.00       6.84      -1.33
H      -3.17       3.13      -3.17
H       1.64       9.05       1.45
H      -1.64       4.17      -1.45
H       2.27       5.27       3.45
H      -2.27       7.96      -3.45
H       3.76       6.46       5.05
H      -3.76       6.76      -5.05
H       0.91       5.29       1.40
H      -0.92       7.93      -1.40
N       3.53       8.31       4.16
N      -3.53       4.91      -4.16
N       0.36       7.03       0.41
N      -0.36       6.19      -0.41
C       2.94       9.02       3.17
C      -2.94       4.20      -3.17
C       2.09       8.45       2.23
C      -2.10       4.77      -2.23
C       1.84       7.07       2.30
C      -1.84       6.15      -2.30
C       2.45       6.34       3.33
C      -2.45       6.89      -3.33
