20

H       1.40       9.44      10.44
H      -0.70       6.91       6.81
O      -3.03       7.13       8.82
O       3.73       9.22       8.43
H       1.05       5.82       8.77
O       3.80       6.95       8.63
O      -3.11       9.40       8.61
H      -0.35      10.53       8.47
C      -2.50       8.29       8.72
C       3.20       8.07       8.52
C      -0.05       7.66       9.80
C       0.74       8.69       7.45
C       0.91       8.89       9.63
C      -0.21       7.46       7.62
C       1.71       8.07       8.54
C      -1.01       8.28       8.70
C       0.73       6.86       8.70
C      -0.04       9.49       8.55
I      -0.59       6.86      11.68
I       1.29       9.49       5.56
