26

C      19.05      13.09       4.86
C      19.05       8.96      10.71
C      20.26      12.69       5.46
C      20.25      11.91       6.61
C      17.85       9.38      10.14
C      17.85      10.20       9.02
C      20.26       9.38      10.14
C      20.25      10.20       9.02
C      17.85      12.69       5.46
C      17.85      11.91       6.60
C      19.05      11.49       7.21
C      19.05      10.64       8.42
O      17.92       7.75      12.40
O      20.19      14.28       3.16
O      17.92      14.28       3.16
O      20.19       7.75      12.40
H      21.20      13.00       5.00
H      21.21      11.62       7.03
H      16.91       9.06      10.59
H      16.89      10.51       8.61
H      21.20       9.06      10.59
H      21.21      10.51       8.60
H      16.91      13.01       5.00
H      16.89      11.62       7.03
C      19.05       8.08      11.92
C      19.05      13.94       3.64
