34

H       6.06       7.29       3.93
H       4.04       3.33      -2.08
H       6.91       6.52      -1.65
H       5.67       6.45       1.61
H       6.41       7.27      -3.97
H       3.63       4.25      -0.03
H       9.23       4.61       0.04
H       3.44       4.19      -4.33
H       9.40       4.62       4.33
H       8.94       3.67       2.08
C       7.99       6.51       5.65
C       4.59       6.25      -5.67
C       7.76       6.01       4.26
C       4.89       5.78      -4.28
C       6.69       6.50       3.50
C       5.89       6.42      -3.53
C       6.46       6.02       2.23
C       6.18       5.98      -2.25
C       7.26       4.99       1.68
C       5.53       4.86      -1.69
C       8.32       4.49       2.46
C       4.54       4.22      -2.46
C       8.58       5.01       3.73
C       4.21       4.68      -3.74
C       7.05       4.62       0.28
C       5.79       4.53      -0.29
C       4.60       4.12       0.51
C       8.29       4.37      -0.52
O       8.34       3.89      -1.64
O       9.18       6.40       6.12
O       3.42       6.06      -6.13
O       6.99       6.98       6.28
O       5.56       6.78      -6.31
O       4.62       3.62       1.63
