34

O      16.09       8.70      13.85
H      17.52       9.72      12.31
O      17.10      17.56      13.70
O      19.31      17.93      13.51
H      20.81      16.59      14.46
H      21.68      15.04      14.41
H      21.61      16.08      12.98
H      21.27      12.17      13.68
H      21.16      12.42      11.93
H      21.97      13.63      12.94
H      12.87      10.57      13.14
H      14.73      14.45      13.24
H      19.56      11.03      12.33
H      16.40      15.49      13.36
H      12.70      13.07      13.23
C      15.09       9.10      13.16
C      18.30      17.15      13.59
C      19.80      13.66      13.07
C      18.50      15.67      13.45
C      13.76      11.19      13.06
C      13.67      12.59      13.13
C      14.82      13.37      13.12
C      16.10      12.78      12.98
C      16.19      11.36      12.84
C      17.33      13.56      13.03
C      18.60      12.92      12.88
C      18.61      11.52      12.56
C      17.47      10.78      12.55
C      17.33      14.94      13.28
C      19.76      15.01      13.43
C      15.00      10.58      12.96
C      21.03      15.72      13.85
C      21.12      12.94      12.91
O      14.18       8.35      12.69
