12

C       3.57       5.49       8.25
O      -0.51       7.71       9.08
O       8.60       2.50       7.42
O       0.48       8.95       7.42
O       7.62       1.26       9.08
C       4.53       4.72       8.25
C       1.55       7.08       8.25
C       6.55       3.13       8.25
C       2.52       6.32       8.25
C       5.58       3.89       8.25
C       0.43       7.98       8.25
C       7.67       2.23       8.25
