28

H       9.21       7.06      12.39
H       9.12       7.23      14.89
H      12.71       4.87      15.13
H       8.29       7.87      18.56
H      11.88       5.51      18.80
H      11.79       5.67      21.30
C       9.98       6.80      22.84
C      11.02       5.94      10.85
C      11.03       5.93      12.34
C       9.98       6.61      13.01
C       9.92       6.69      14.39
C      10.92       6.07      15.15
C      11.96       5.37      14.52
C      12.02       5.30      13.13
C       9.04       7.37      19.17
C      10.08       6.67      18.54
C      11.08       6.04      19.31
C      11.01       6.13      20.68
C       9.97       6.80      21.35
C       8.98       7.43      20.56
N      10.98       6.06      16.57
N      10.02       6.68      17.13
Cl      13.32       4.36      12.46
Cl       7.68       8.37      21.23
O      11.11       6.70      23.40
O      12.14       5.86      10.25
O       9.89       6.04      10.29
O       8.86       6.88      23.44
