16

C      24.78       9.48      27.67
C      26.72      10.62      29.37
C      24.64       9.41      29.08
C      26.87      10.72      27.98
C      25.61       9.97      29.91
C      25.91      10.15      27.15
C      27.75      11.21      30.28
C      23.82       8.89      26.68
O      24.20       8.91      25.45
O      28.74      11.79      29.73
O      27.54      11.09      31.54
O      22.72       8.43      27.11
H      27.74      11.23      27.56
H      25.50       9.91      30.99
H      26.01      10.20      26.07
Cl      23.32       8.64      29.88
