24

H      16.90       6.95      21.13
H      17.36       2.31      19.48
S      14.78       6.60      19.37
S      19.63       2.75      21.03
H      13.38       5.07      19.48
H      19.60       3.40      23.00
O      13.95       3.83      18.50
O      15.57       2.37      17.93
C      15.16       3.39      18.55
C      19.00       5.81      22.20
O      19.73       5.07      22.96
O      18.98       7.08      22.25
C      16.14       4.08      19.45
C      18.08       5.15      21.22
C      16.04       5.41      19.91
C      18.22       3.84      20.72
C      16.99       5.92      20.78
C      17.25       3.33      19.85
O      13.45       5.96      19.95
O      14.99       7.82      20.09
O      14.77       6.59      17.93
O      19.50       2.49      22.59
O      19.37       1.50      20.38
O      20.82       3.50      20.74
