28

O      18.34      28.71      12.09
O      17.47      27.94      10.17
C      17.41      28.17      11.42
C       6.65      24.78      17.60
O       5.72      24.24      16.92
O       6.59      25.01      18.85
C       7.92      25.18      16.87
C       8.07      24.96      15.46
C       9.25      25.34      14.80
C      10.33      25.94      15.48
C      10.18      26.15      16.87
C       9.01      25.79      17.56
C      11.52      26.31      14.80
C      12.54      26.64      14.21
C      13.73      27.01      13.53
C      13.88      26.79      12.14
C      15.05      27.16      11.46
C      16.14      27.77      12.15
C      15.99      27.98      13.55
C      14.81      27.61      14.22
Br       6.74      24.17      14.36
Br       9.02      26.16      19.42
Br      11.64      26.96      17.77
Br       9.47      25.06      12.95
Br      12.42      25.99      11.25
Br      14.59      27.89      16.07
Br      17.32      28.78      14.65
Br      15.04      26.79       9.59
