26

C       9.63       5.40      12.69
H       9.85       3.85      11.20
H      11.01       6.94      13.09
C      10.38       4.67      11.70
C      10.08       6.46      13.41
C      10.18       7.93      15.48
H       8.66       4.97      12.95
H      12.26       5.59      11.97
C      11.72       4.79      11.46
N      14.46       2.81      10.09
H      11.05       9.16      14.13
H      11.29       9.61      15.74
H      14.26       5.93      10.91
H      15.56       4.96      11.28
N       8.80       6.84      16.80
N      13.43       1.88      10.03
N      11.15       8.84      15.09
H       8.03       5.44      15.42
N      14.78       5.09      10.65
H      11.37       1.94      10.45
N       9.72       7.86      16.75
C      13.95       3.97      10.53
C       8.70       6.27      15.59
C      12.30       2.50      10.41
C       9.59       6.91      14.69
C      12.56       3.84      10.77
