15

O       5.56       7.85       6.23
O       3.81       8.05       7.63
O       5.18       9.04      12.52
O       7.07      10.27      12.75
H       4.61       8.59      10.06
H       8.55      10.18      10.79
H       9.09       9.74       8.37
C       5.99       8.67       8.39
C       5.61       8.86       9.72
C       6.55       9.39      10.61
C       7.81       9.74      10.12
C       8.11       9.50       8.78
C       5.03       8.14       7.35
N       7.23       8.96       7.93
C       6.23       9.59      12.08
