20

H      15.89       6.47      20.27
H      13.56       1.69      19.73
H      12.67       2.29      21.16
H      10.95       3.33      19.63
H      11.84       2.73      18.21
Cl      14.41       8.09      18.64
C      11.84       6.27      17.81
C      15.96       3.99      21.34
O      10.91       5.44      17.53
O      11.91       7.48      17.40
O      16.94       4.75      21.65
O      15.79       2.78      21.70
C      14.90       4.57      20.46
C      12.91       5.75      18.71
C      13.77       3.87      20.05
C      14.07       6.46      19.13
C      12.82       4.45      19.21
C      15.03       5.88      19.97
C      13.03       2.55      20.15
C      11.95       3.20      19.20
