12

O       9.30       6.04       8.03
O      19.65       8.27       7.49
O      19.67       6.04       7.02
O       9.31       8.28       7.57
C       9.87       7.16       7.80
C      19.09       7.15       7.25
C      11.31       7.16       7.78
C      17.65       7.15       7.26
C      12.53       7.18       7.69
C      16.43       7.17       7.35
C      13.87       7.18       7.58
C      15.10       7.18       7.46
