22

H      -5.71      10.13       8.94
H      -6.74      11.10      13.70
O      -7.29      11.80       8.01
H      -8.01      12.25      11.88
O      -8.52      12.84       9.60
H      -2.92      10.09       9.44
H      -2.44       9.99      11.14
H      -2.01       8.67      10.03
H      -3.95       7.98      11.45
H      -4.44       8.10       9.76
C      -5.92      10.33       9.99
C      -5.21       9.66      10.99
C      -5.51       9.97      12.33
C      -6.52      10.89      12.66
C      -7.22      11.53      11.65
C      -6.91      11.27      10.31
C      -4.70       9.41      13.46
C      -7.62      12.02       9.24
C      -4.11       8.69      10.63
C      -2.79       9.40      10.29
O      -5.01       8.24      13.92
O      -3.77      10.15      13.89
