27

C      -2.05       8.69       5.15
H      -0.59      14.12       5.54
C      -1.05       7.72       5.26
H      -1.06      11.66       5.46
H      -4.15      12.36       2.55
H      -3.61      14.82       2.57
H       0.86       8.55       2.57
H      -0.92      10.33       2.38
H      -2.87       8.75       5.87
H      -1.05       7.02       6.10
O      -1.04      16.55       5.04
O      -2.26      16.84       3.19
O       1.02       5.76       5.36
O       2.05       6.68       3.61
O      -3.01      10.55       3.99
C      -1.78      16.08       4.09
C      -2.07      14.62       4.06
C      -1.36      13.73       4.88
C      -1.62      12.36       4.84
C      -2.64      11.89       4.00
C      -3.37      12.76       3.19
C      -3.07      14.12       3.22
C       1.08       6.65       4.45
C      -0.00       7.67       4.33
C       0.04       8.61       3.29
C      -0.94       9.59       3.18
C      -1.98       9.62       4.11
