30

O       4.24      14.96      12.42
O       2.01      14.63      12.24
H       4.87      15.04      14.85
H       1.61      12.47      13.73
O       3.72       9.42      19.75
O       1.49       9.82      19.97
H      -0.01       7.48      17.21
H       0.39       8.05      15.56
H      -0.51       9.12      16.69
O       1.51       8.81      17.17
O       1.06      10.36      14.74
H       1.12       9.44      12.93
H       2.24       8.73      14.15
H       2.64      10.29      13.35
C       3.12      14.54      12.86
C       2.64      10.66      18.07
C       3.16      13.88      14.19
C       4.25      13.63      16.34
C       4.15      14.26      15.12
C       2.34      12.80      14.46
C       2.49      12.08      15.67
C       3.37      12.56      16.71
C       3.30      11.87      17.95
C       1.94      10.08      16.97
C       1.81      10.83      15.80
C       2.61       9.91      19.37
C       0.26       8.35      16.61
C       1.82       9.66      13.74
Br       3.87      12.66      19.60
Br       5.78      14.14      17.36
