23

H       1.34       3.83      12.13
C      -0.28       5.16      13.85
C      -0.98       5.28      15.04
C      -0.23       5.10      11.35
C      -0.70       5.78      10.21
C       0.04       5.78       9.03
C       1.27       5.11       8.98
C       1.72       4.40      10.10
C       0.98       4.39      11.27
C       2.13       5.19       7.76
H      -4.09       5.49      13.97
N      -2.33       5.41      15.07
H      -2.97       5.24      11.77
H       0.81       5.14      13.89
H      -0.47       5.27      15.99
C      -3.00       5.39      13.90
H      -1.64       6.34      10.26
O       3.33       4.79       7.78
C      -2.37       5.27      12.68
H      -0.32       6.32       8.15
O       1.62       5.69       6.68
C      -0.97       5.17      12.63
H       2.67       3.87      10.03
