42

H       4.86       2.41       7.12
H       4.29       1.11       6.05
H       6.68      -1.23       6.17
H       9.27       0.45      10.12
H      10.81      -1.22       7.83
H      10.03      -1.39       9.41
H       9.82      -2.65       8.18
H      10.59       0.80       9.00
H       9.47       2.09       9.46
H       4.43       0.32       9.29
H       4.83       0.83      10.91
H       4.90       2.03       9.60
H       4.08       0.95       7.78
C       7.52      -5.50       8.04
C       8.69      -0.85       7.75
C       8.67       0.69       8.02
C       6.96       3.84       8.14
C       7.23      -1.42       8.20
C       6.15       0.67       7.06
C       7.15       1.20       8.20
C       6.56       0.62       9.63
C       6.83      -0.92       9.67
C       7.10       2.63       8.22
C       7.27      -2.86       8.16
C       7.40      -4.06       8.09
C       6.84       5.27       8.05
C       9.55       1.03       9.23
C       5.09       0.98       9.86
C       4.76       1.32       7.02
C       9.90      -1.57       8.34
C       6.24      -0.86       7.10
I       6.76       1.36       4.97
I       9.01      -1.55       5.61
I       9.86       1.92       6.54
I       5.03      -2.10      10.39
I       8.19      -1.70      11.25
I       4.33      -1.91       6.80
I       7.34       1.83      11.39
O       6.43      -6.14       8.10
O       8.70      -5.96       7.94
O       5.67       5.73       7.86
O       7.93       5.92       8.16
