54

H       8.96       0.99      10.28
H       4.81      -0.85      10.39
H       8.96      -0.85       9.21
H       4.82       1.03       9.12
H      10.40       2.42       9.00
H      10.70       2.21      10.75
H      12.52       3.56       9.61
H      11.30       4.79       9.18
H      11.70       4.49      10.89
H       3.82      -4.20       8.84
H       3.37      -2.49       9.16
H       1.99      -3.23      11.13
H       1.45      -4.06       9.65
H       2.46      -4.92      10.84
H      10.35      -2.26      10.59
H      10.72      -2.07       8.86
H      12.49      -3.41      10.09
H      11.24      -4.63      10.48
H      11.72      -4.35       8.79
H       3.85       4.31      10.82
H       3.40       2.61      10.44
H       1.97       3.41       8.54
H       1.45       4.17      10.07
H       2.43       5.09       8.89
C       6.89       5.18       9.77
C       6.88      -0.66       9.77
C       6.89      -5.01       9.88
C       8.09       2.93       9.98
C       5.74      -2.77      10.14
C       8.07       1.53      10.00
C       5.73      -1.37      10.10
C       8.06      -1.38       9.51
C       5.73       1.54       9.42
C      10.48       2.95       9.96
C      11.57       4.01       9.91
C       3.53      -3.49       9.63
C       2.28      -3.95      10.36
C      10.47      -2.80       9.64
C       8.08      -2.78       9.57
C      11.55      -3.86       9.76
C       3.54       3.62      10.02
C       2.27       4.10       9.34
C       5.74       2.94       9.43
C       6.91       3.68       9.73
C       6.90      -3.51       9.86
C       6.89       0.82       9.73
O       7.94       5.80       9.40
O       4.59      -3.40      10.59
O       9.23      -3.47       9.33
O       4.59       3.59       9.03
O       5.82      -5.59       9.49
O       7.94      -5.62      10.28
O       5.82       5.74      10.19
O       9.24       3.62      10.24
