30

H       0.26      16.62      18.54
H       0.04      20.81      13.97
H      -0.05      22.85      12.48
H       4.15      17.69      20.03
H       3.66      22.28      15.77
H       4.12      19.77      18.60
H       3.64      24.25      14.21
C       1.74      24.86      12.38
C       2.24      15.80      20.20
C       1.78      23.67      13.27
C       2.85      23.51      14.18
C       2.86      22.42      15.04
C       1.84      21.46      14.96
C       0.81      21.59      14.02
C       0.76      22.71      13.20
C       1.12      18.42      17.73
C       1.12      17.29      18.53
C       2.22      19.31      17.73
C       2.22      17.02      19.35
C       3.30      17.91      19.39
C       3.29      19.06      18.60
N       1.76      20.33      15.79
N       2.35      20.44      16.90
N      -0.11      18.70      16.97
O       0.62      25.14      11.84
O       2.81      25.54      12.23
O       3.35      15.49      20.73
O       1.16      15.14      20.32
O      -0.57      17.77      16.29
O      -0.65      19.81      17.13
