14

O       6.27       5.73      12.93
O       7.37       7.73      12.96
O       2.63      10.48       8.97
H       4.19       5.69      11.76
H       2.39       6.73      10.26
O       1.46       8.52       8.97
C       6.43       6.96      12.61
C       5.34       7.52      11.72
C       4.25       6.71      11.39
C       3.28       7.27      10.58
N       4.56       9.33      10.52
N       5.49       8.78      11.30
C       3.48       8.60      10.17
C       2.44       9.27       9.30
