16

O      19.79      10.13       5.88
C      18.72       9.43       5.79
C      18.99       3.02       1.92
O      20.07       2.49       1.48
S      20.36       7.63       4.47
S      17.50       4.85       3.23
H      21.14       4.88       2.75
O      17.80       2.57       1.77
C      17.77       7.32       4.67
Cl      16.11       7.51       5.00
C      18.80       8.18       5.03
C      20.11       5.10       3.02
C      19.65       6.22       3.75
C      18.25       6.21       3.94
C      19.04       4.28       2.68
O      17.59       9.71       6.31
