26

Cl       8.99      11.09       4.49
H       9.95      16.12      10.44
H       9.43      15.79       8.02
H      12.97      13.37       7.58
O      11.49      16.02      12.45
H      13.45      13.66      10.01
O      12.98      14.33      12.29
O       8.48      14.12       1.83
O       9.43      12.07       1.77
F      11.52      16.27       5.40
C      11.71      14.88      10.37
C      10.60      15.51       9.80
C      10.32      15.34       8.45
C      11.16      14.55       7.65
C      12.06      15.07      11.80
C      12.30      13.97       8.21
C      12.57      14.12       9.56
C      10.93      15.07       5.18
C      10.51      14.76       3.88
C       9.76      12.60       4.70
C      10.17      12.96       6.00
C      10.76      14.21       6.26
C       9.90      13.51       3.63
C       9.25      13.22       2.30
Cl      10.81      15.90       2.64
Cl       9.90      11.87       7.30
