26

O      19.20      15.72      24.89
O      30.44      16.55      24.87
H      21.30      17.27      21.94
H      23.79      17.52      21.93
H      28.20      16.07      21.63
C      21.91      16.84      22.74
C      19.76      16.04      23.79
C      21.26      16.18      23.79
H      21.53      15.16      25.66
H      25.71      16.10      21.63
C      29.86      16.36      23.76
H      24.01      15.34      25.63
H      25.74      16.94      25.86
H      28.23      16.91      25.84
C      28.36      16.47      23.74
C      23.29      16.97      22.73
C      27.65      16.27      22.55
C      24.07      16.43      23.77
C      25.55      16.51      23.75
C      22.03      15.66      24.84
C      26.26      16.30      22.55
C      23.42      15.77      24.82
C      26.27      16.74      24.93
C      27.66      16.73      24.92
O      30.43      16.06      22.66
O      19.18      16.26      22.68
