28

C      14.93      10.09      31.65
C      14.92      19.76      31.65
H      16.48      10.23      30.16
H      13.37      19.62      30.16
C      15.80      10.79      30.81
C      14.04      19.06      30.81
C      15.81      12.18      30.81
C      14.03      17.67      30.81
H      16.49      12.73      30.16
H      13.35      17.12      30.16
H      13.37      12.74      33.14
C      14.93      12.90      31.65
H      16.47      17.11      33.14
C      14.91      16.95      31.65
O      15.73       8.02      30.85
O      14.12      21.83      30.85
C      14.05      12.18      32.49
H      16.47      19.61      33.14
C      15.80      17.66      32.49
H      13.38      10.24      33.14
O      14.11       8.02      32.46
O      15.73      21.83      32.46
C      14.05      10.80      32.49
C      15.80      19.05      32.49
C      14.93      14.31      31.65
C      14.92      15.53      31.65
C      14.92       8.60      31.65
C      14.92      21.25      31.65
