14

C       6.50       2.44       5.94
C       6.43      -1.61       8.78
H       7.24      -2.07       8.20
H       5.14       2.07       7.61
C       5.94       1.61       7.03
C       5.95      -0.40       8.45
O       4.99      -1.89      10.65
H       5.13       0.01       9.06
C       6.43       0.40       7.36
H       7.25      -0.01       6.76
O       7.39       1.89       5.16
O       6.25      -3.64      10.00
O       6.13       3.64       5.81
C       5.88      -2.44       9.87
