18

C      30.23      19.19      29.07
C      30.32      18.54      27.82
O      30.39      21.82      25.09
O      30.18      23.09      26.99
S      30.36      16.83      27.99
N      30.51      19.07      25.41
C      30.25      15.76      30.54
H      30.25      18.13      25.14
H      30.42      19.82      24.73
C      30.38      19.44      26.72
C      30.30      21.97      26.37
H      30.13      18.55      31.21
C      30.31      20.77      27.18
S      30.21      20.91      28.92
C      30.25      16.98      29.72
C      30.19      18.29      30.16
O      30.17      15.92      31.81
O      30.33      14.65      29.91
