26

C      11.13      13.77      19.12
C      12.17      12.62      19.09
C      13.46      13.05      19.84
C      13.07      13.39      21.30
C      12.05      14.55      21.33
C      11.71      14.99      19.89
C      13.00      15.45      19.19
C      14.03      14.30      19.17
H      10.87      14.08      18.10
H      10.20      13.46      19.62
H      11.77      11.72      19.57
H      12.43      12.36      18.06
H      12.67      12.48      21.78
H      13.98      13.66      21.86
H      11.12      14.24      21.83
H      12.45      15.41      21.89
H      12.75      15.78      18.17
H      13.40      16.34      19.70
H      14.96      14.60      19.69
H      14.33      14.05      18.14
O       9.65      15.90      20.66
O      10.83      17.08      19.12
O      14.16      10.86      20.49
O      15.50      12.06      19.11
C      10.65      16.09      19.89
C      14.45      11.90      19.81
