24

H       4.80      17.89      13.81
H       1.85      21.57      12.42
C       2.72      22.70      17.60
C       3.94      16.76       8.62
C       2.69      18.95      14.02
C       3.96      20.51      12.21
C       4.15      18.71      13.50
C       2.51      20.75      12.72
C       3.96      17.52       9.85
C       2.69      21.95      16.37
C       2.20      19.23      12.56
C       4.45      20.23      13.67
C       3.67      18.96      12.02
C       2.99      20.50      14.21
C       3.93      18.18      10.87
C       2.73      21.28      15.35
Br       1.81      17.85      15.29
Br       4.84      21.62      10.94
Br       5.98      20.98      14.51
Br       0.67      18.49      11.72
O       1.60      22.96      18.15
O       5.06      16.51       8.08
O       3.87      23.03      18.03
O       2.79      16.43       8.20
