56

C       4.13       1.85      22.18
H       4.67      -1.69      23.75
C       3.67       2.84      21.31
C       3.79       2.70      19.93
H       6.05       3.21      28.08
C       4.80       0.64      20.18
H       1.74       3.55      27.87
C       4.70       0.69      21.59
H       3.80       4.45      31.51
C       5.21      -0.45      22.41
H       2.05       3.78      25.82
C       5.24      -0.57      19.45
H       2.11       3.07      23.48
C       6.30      -0.54      18.54
H       5.96       1.23      24.15
C       6.55      -1.66      17.75
H       5.84       1.83      26.51
H       3.26       3.76      21.73
C       4.76      -2.80      18.68
C       4.48      -1.74      19.54
H       6.93       0.35      18.43
C       3.25       3.73      19.01
H       7.38      -1.69      17.05
C       3.78       3.93      17.73
H       4.12      -3.68      18.65
H       3.62      -1.80      20.22
C       3.29       4.96      16.95
H       4.59       3.29      17.36
C       1.70       5.51      18.54
C       2.17       4.53      19.40
H       3.73       5.16      15.97
N       4.38       1.63      19.37
H       0.83       6.12      18.79
N       5.77      -2.77      17.79
H       1.66       4.37      20.35
C       6.30       3.85      30.68
N       2.28       5.76      17.35
C       5.05       3.81      29.87
O       7.41       3.83      29.99
C       5.08       3.42      28.52
O       6.26       3.91      31.93
C       3.90       3.31      27.77
O       0.27       4.15      29.73
C       2.69       3.64      28.39
O       1.32       4.82      31.57
O       6.35      -0.88      22.36
C       2.65       4.08      29.72
O       4.25      -0.97      23.22
C       3.83       4.15      30.46
C       1.36       4.39      30.39
C       3.94       2.87      26.36
C       2.90       3.19      25.47
C       2.95       2.81      24.14
C       4.05       2.10      23.63
C       5.08       1.75      24.52
C       5.02       2.12      25.86
