28

O       9.63       8.76      23.50
O       7.45       9.27      23.48
C       8.43       8.50      21.44
C       9.35       7.64      20.73
C       7.40       9.15      20.73
C      10.18       6.68      21.39
O       6.41       9.88      18.73
O       6.42       9.87      21.30
C      11.01       5.79      20.69
O      11.77       4.91      18.61
O      11.78       4.91      21.38
O      10.21       6.44      22.74
C       8.42       8.51      18.58
C       7.39       9.15      19.30
C       9.35       7.64      19.28
C      10.17       6.69      18.61
C      11.00       5.80      19.30
O      10.19       6.45      17.26
H       6.57       9.77      17.74
H       6.58       9.76      22.29
H      10.06       7.33      16.80
H      11.56       5.10      17.66
H      11.58       5.09      22.33
H      10.08       7.32      23.21
C       8.49       8.85      17.14
C       8.51       8.84      22.88
O       7.43       9.29      16.55
O       9.61       8.77      16.51
