40

H       0.29       5.72       2.96
H       0.79       7.36       4.55
H       3.18       5.34       6.35
H       2.95       6.61       5.16
H       2.68       5.03       3.47
H       1.38       4.37       7.53
H      -0.63       3.34       5.62
H      -1.01       5.08       3.98
H       0.99       2.71       5.97
H      -2.47       8.38       5.08
H      -1.19       8.33       3.84
H      -0.91       9.40       6.71
H       0.41       9.33       5.55
H      -0.87      10.86       3.98
H      -0.60      11.62       5.56
H      -2.19      10.96       5.17
C       1.35       8.94       9.04
C       0.22       6.52       5.00
C       2.50       5.68       5.56
C       2.37       4.64       4.44
C       0.66       2.29       2.44
C       1.11       6.02       6.18
C       0.04       5.38       3.97
C       0.91       4.15       4.34
C       0.43       3.61       5.71
C       0.63       4.68       6.80
C       0.75       3.13       3.31
C       1.25       7.04       7.19
C       1.34       7.92       8.03
C       0.63       1.30       1.40
C      -1.39       8.30       4.93
C      -0.69       9.45       5.64
C      -1.11      10.80       5.05
Br       3.58       3.10       4.70
Br      -0.98       4.86       7.93
O       0.21       9.36       9.43
O       2.49       9.33       9.46
O       1.77       0.91       0.97
O      -0.51       0.91       0.99
O      -1.04       7.00       5.44
