33

N       0.31       7.51      12.36
N       2.52      13.36       2.11
H       2.18       7.78       8.54
H       1.39      11.56      10.47
H       2.81       7.74       6.13
H       1.97      12.75       8.40
H       3.10       8.93       3.99
H       2.39      12.69       5.98
H       1.52      10.47      12.51
H       1.96      10.19       1.98
H       0.07       6.90       9.13
H       1.38       5.97       9.87
H      -0.27       5.80      10.48
H       3.26      13.77       4.04
C       0.69       7.64      11.06
C       2.89      13.01       3.36
C       1.25       8.91      10.88
C       2.71      11.63       3.55
C       1.71       9.56       9.66
C       2.75      10.91       4.83
C       2.72       8.83       6.10
C       2.88       9.49       4.90
C       2.52      11.61       6.01
C       2.34      10.95       7.25
C       2.41       9.52       7.30
C       2.11       8.86       8.52
C       1.69      10.99       9.59
C       2.01      11.66       8.43
C       2.24      11.19       2.30
C       0.46       6.52      10.09
C       1.17       9.49      12.18
N       2.11      12.23       1.46
N       0.60       8.66      13.05
