18

H      12.93       5.27       4.02
C      14.44       6.58       0.94
C      11.55       4.17      -0.04
H      12.83       2.71      -0.83
H      12.49       6.06      -0.62
C      11.80       2.95      -0.54
C      12.56       5.23       0.10
C      13.52       5.38       1.03
S      13.77       4.23       2.37
Cl       9.99       4.78       0.35
O      15.44       6.62       1.75
O      12.59       3.42       2.54
O      13.83       5.23       3.64
C      10.82       1.85      -0.69
O      15.07       3.64       2.24
O       9.79       1.86       0.04
O      14.15       7.45       0.07
O      11.11       0.93      -1.55
