52

O       5.72      -0.06      11.79
H       2.78       5.23       9.91
O       0.89       9.30       1.15
O       1.18      11.60       5.27
O       5.44      -2.37       7.67
H       5.47      -0.91       9.67
H       1.14      10.15       3.27
O       5.55       0.31       5.04
O       2.72      10.69       6.67
O       1.06       8.93       7.90
H       1.07       8.77       8.87
H       5.54       0.46       4.07
O       3.01       6.03       1.61
O       3.60       3.21      11.33
H       3.03       3.92      11.67
H       3.57       5.31       1.27
O       3.89      -1.45       6.27
O       6.08       2.18      11.77
H       2.04       6.75       8.99
O       0.53       7.06       1.16
H       4.57       2.49       3.95
H       3.83       4.00       3.03
C       3.25       4.46       9.32
C       1.83      10.61       5.77
C       4.79      -1.38       7.17
C       5.59       1.11      11.28
C       1.02       8.13       1.66
C       4.88       1.31       5.68
C       1.73       7.93       7.26
C       2.85       5.87       2.96
C       3.76       3.36       9.98
C       3.83       3.48       7.15
C       2.78       5.76       5.79
C       3.29       4.57       7.90
C       3.32       4.66       5.04
C       4.43       2.44       5.03
C       2.76       5.71       7.21
C       3.84       3.52       5.73
C       4.73       1.17       7.10
C       2.17       6.80       7.91
C       1.88       8.06       5.84
C       2.22       6.95       3.66
C       4.39       2.29       9.28
C       4.97      -0.04       7.79
C       1.64       9.27       5.15
C       1.63       8.08       3.02
C       4.98       1.16       9.92
C       5.17      -0.00       9.16
C       1.44       9.24       3.78
C       4.33       2.32       7.84
C       3.35       4.78       3.62
C       2.28       6.91       5.10
