34

O       9.76      13.82      15.34
O       9.57      13.38      17.48
O      11.84       9.99      12.67
O      11.91       8.04      13.68
H      13.76      14.17      13.07
H      10.02      13.74      11.01
H       8.96      11.08      17.88
H      10.46       7.81      15.53
N      13.29      12.46      15.00
N       8.88      12.07      12.64
N       9.75      13.04      16.31
N      11.57       9.23      13.62
C      12.38      15.07      10.88
C      11.96      14.03      11.88
C      12.79      13.69      12.96
C      12.35      12.76      13.89
C      11.09      12.14      13.83
C      10.27      12.55      12.76
C      10.70      13.45      11.80
C      10.62      11.18      14.87
C       9.96      11.60      16.04
C       9.47      10.71      16.99
C       9.60       9.34      16.78
C      10.30       8.88      15.67
C      10.81       9.78      14.75
C       9.01       8.38      17.75
O      13.44      15.71      11.14
O      11.60      15.24       9.89
O       9.04       7.12      17.46
O       8.45       8.81      18.81
O      14.15      13.30      15.25
O      13.16      11.38      15.60
O       8.16      12.62      11.79
O       8.49      11.16      13.39
