26

H       5.92       6.99       4.71
H       5.97       6.96       2.23
H       1.74       7.15       4.75
H       5.96       7.16      -4.73
H       1.79       7.01      -4.70
H       1.73       6.97      -2.22
C       4.99       7.00       4.14
C       5.02       6.96       2.75
C       3.81       6.95       2.02
C       2.63       7.02       2.79
C       2.67       7.08       4.18
C       3.82       6.92       0.61
C       3.88       6.92      -0.60
C       3.89       6.95      -2.01
C       5.07       7.02      -2.77
C       5.03       7.09      -4.16
C       2.72       7.01      -4.12
C       2.68       6.97      -2.74
N       3.84       7.04       4.85
N       3.87       7.06      -4.83
N       1.31       7.00       2.15
N       6.39       7.00      -2.13
O       1.11       6.15       1.28
O       0.49       7.85       2.54
O       6.58       6.15      -1.26
O       7.22       7.84      -2.53
