26

C       5.00      13.42       0.28
C       6.38      13.27       0.36
C       6.92      12.58       1.45
C       6.04      12.05       2.41
C       4.67      12.24       2.25
C       8.36      12.40       1.61
C      11.32      13.36       0.32
C      12.77      13.24       0.43
C      13.58      14.07      -0.36
C      14.97      13.96      -0.24
C      14.78      12.29       1.35
C      13.39      12.33       1.31
H       4.56      13.96      -0.56
H       7.01      13.68      -0.42
H       6.42      11.50       3.27
H       3.95      11.85       2.97
H       8.73      11.73       2.41
H      10.91      14.02      -0.46
H      13.15      14.80      -1.03
H      15.64      14.59      -0.82
H      15.31      11.60       2.00
H      12.79      11.67       1.93
N       4.16      12.92       1.21
N       9.19      13.02       0.83
N      10.52      12.73       1.12
N      15.56      13.09       0.59
