28

H       7.92      10.97       9.78
H       3.39      18.27       6.08
H       2.94      16.71       5.56
H       6.81      12.59      10.69
H       6.54      14.17      10.05
H       4.58      13.84       5.02
H       4.23      15.42       4.46
H       6.98       9.53       9.71
C       6.48      16.90       8.01
C       6.17      11.16       8.76
C       4.70      16.77       6.54
C       6.09      12.59       8.80
C       4.92      15.36       6.37
C       5.41      13.27       7.74
C       5.61      14.67       7.40
C       4.36      12.43       7.17
C       6.63      15.52       8.00
C       4.46      11.05       7.22
N       5.44      10.42       7.91
N       5.43      17.51       7.39
N       7.00      10.56       9.68
N       3.71      17.34       5.79
N       6.69      13.18       9.87
N       4.38      14.80       5.24
Cl       2.81      13.08       6.77
Cl       8.23      14.91       8.29
Cl       3.28      10.06       6.46
Cl       7.64      17.91       8.75
