16

C       4.04       8.94       6.17
H       5.31       7.96       8.32
C       8.62       5.47       6.17
H       7.34       6.46       8.32
O       3.32       9.08       7.22
H       5.35       7.98       4.01
O       9.34       5.33       7.22
O       3.75       9.61       5.12
H       7.31       6.43       4.01
C       5.77       7.62       7.39
O       8.90       4.80       5.12
C       6.89       6.79       7.39
C       5.21       8.04       6.17
C       7.44       6.37       6.17
C       5.78       7.63       4.95
C       6.88       6.78       4.95
