25

H      11.56       1.15      14.30
H      18.19      -3.62      14.58
H      18.86      -1.59      13.26
H      17.13       0.17      12.79
N      16.24      -3.01      14.84
N      13.77      -3.46      15.84
H      13.02       2.76      12.92
N      14.57       1.30      13.10
H      10.83      -0.95      15.41
N      12.51       0.93      13.92
H      10.52      -3.11      16.64
H      12.48      -4.67      16.88
C      17.48      -2.83      14.37
C      17.84      -1.69      13.63
C      16.89      -0.71      13.38
C      15.59      -0.88      13.88
C      15.30      -2.06      14.61
C      14.53       0.06      13.71
C      13.25      -0.19      14.23
C      13.35       1.78      13.26
C      12.91      -1.37      14.95
C      11.65      -1.67      15.50
C      11.48      -2.86      16.19
C      12.57      -3.73      16.34
C      13.96      -2.31      15.14
