28

O       5.25       8.81      10.65
O       5.00       5.48      23.79
O       5.26       6.54      10.68
O       5.00       7.75      23.77
H       4.87       8.73      21.56
H       5.83       5.57      12.84
H       5.11       8.75      19.04
H       5.98       5.55      15.36
H       5.19       9.81      12.90
H       5.49       4.49      21.58
C       5.32       7.68      11.24
C       5.04       6.61      23.21
C       5.47       7.69      12.73
C       5.64       7.66      15.54
C       5.17       6.61      21.71
C       5.72       6.48      13.42
C       5.07       7.82      21.00
C       5.80       6.47      14.80
C       5.21       7.83      19.62
C       5.46       6.64      18.91
C       5.45       8.88      14.84
C       5.56       5.43      19.63
C       5.36       8.89      13.45
C       5.42       5.42      21.02
I       5.21      10.69      15.89
I       5.97       3.62      18.63
N       5.65       7.71      16.94
N       5.53       6.58      17.51
