19

H       7.96       1.68       6.30
H      11.45       4.09       5.54
H      11.01       4.99       3.07
H       9.68       3.81       3.06
H      11.49       2.08       3.91
H      12.69       3.26       3.38
C       9.01       1.32       6.43
C      10.48       4.24       5.03
C      10.66       4.04       3.50
C      11.66       2.92       3.22
C      11.56       2.30       1.83
C      10.02       5.66       5.36
N      10.03       2.29       6.08
N       9.50       3.26       5.48
O       9.32       0.22       6.83
O      10.40       1.96       1.43
O      12.67       2.13       1.22
O      10.94       6.54       5.28
O       8.81       5.84       5.69
