30

C       4.38       6.41      15.72
C       4.01       2.86      12.11
H       2.30       6.04      15.43
H       6.53       6.58      15.86
H       6.08       3.14      12.49
H       1.85       2.72      11.94
S       0.77       4.22      13.99
S       7.61       4.55      14.33
O       3.18       1.26      10.57
H       8.85       4.17      12.67
O       5.44       1.50      10.80
H      -0.47       5.87      14.40
O       2.94       7.70      17.11
O       5.20       7.94      17.33
C       4.22       1.79      11.08
C       4.16       7.43      16.80
O       0.46       5.78      14.01
O      -0.07       3.61      12.97
O       0.72       3.68      15.33
O       7.92       4.56      12.77
O       8.45       5.57      14.96
O       7.66       3.21      14.85
C       3.31       5.78      15.12
C       5.70       6.09      15.36
C       5.93       5.12      14.41
C       4.86       4.45      13.74
C       5.07       3.45      12.75
C       2.68       3.22      12.44
C       2.45       4.15      13.43
C       3.52       4.81      14.11
