16

C     -13.56      10.45       9.62
O     -13.42       5.74      14.29
O     -13.69      11.54      10.28
C     -12.95       6.74      12.21
O     -13.45      10.34       8.35
C     -13.24       5.53      13.05
H     -13.83      10.03      12.26
O     -13.30       4.42      12.43
C     -11.82       6.72      11.25
H     -11.48       7.73      10.95
H     -13.49       8.28       9.75
O     -11.24       5.72      10.86
C     -13.55       9.17      10.37
C     -13.66       9.10      11.71
H     -14.32       7.85      13.35
C     -13.67       7.87      12.47
