16

O      17.38      13.84      26.16
O      15.10      13.69      26.09
O      17.30       6.58      30.94
O      15.02       6.51      30.80
S      14.75      11.32      27.61
S      17.72       8.97      29.38
C      16.26      13.29      26.44
C      16.16       7.02      30.56
C      17.36      11.35      27.78
C      15.10       8.92      29.22
C      16.29      12.06      27.24
Br      19.18      11.78      27.64
C      15.53      10.06      28.50
C      16.93      10.22      28.50
C      16.18       8.24      29.75
H      14.07       8.59      29.37
