28

H       1.86       8.94      17.24
H      -1.86      14.17       9.16
H      -1.96       9.39      14.12
H       1.97      13.72      12.28
H       1.96      10.64      15.42
H      -1.96      12.47      10.98
C      -0.10       7.34      17.94
C       0.10      15.77       8.45
C       1.08      10.01      15.54
C      -1.08      13.10      10.85
C       1.02       9.07      16.56
C      -1.02      14.04       9.84
C      -0.11       8.25      16.75
C       0.11      14.86       9.64
C      -1.18       8.37      15.84
C       1.18      14.74      10.56
C      -1.13       9.31      14.81
C       1.13      13.80      11.58
C      -0.01      10.16      14.66
C       0.02      12.95      11.73
C      -0.00      11.13      13.64
C       0.00      11.98      12.76
Cl      -2.57       7.34      15.87
Cl       2.57      15.77      10.52
O       1.23      16.11       7.97
O      -1.22       7.00      18.43
O       1.04       7.03      18.42
O      -1.04      16.08       7.98
