17

C      27.18      17.40      12.32
O      27.07      18.52      14.37
C      27.66      13.73       9.69
O      27.10      15.50      13.81
O      25.21      16.15      12.72
H      24.86      15.39      13.23
C      26.53      16.25      13.04
H      27.54      16.35       9.10
H      27.86      14.65      11.65
H      28.04      18.26      10.64
C      27.35      18.64      13.13
O      27.65      12.60      10.28
C      27.62      17.33      11.04
C      27.60      16.17      10.17
C      27.71      14.90      10.60
O      27.62      13.94       8.43
O      27.76      19.69      12.54
