42

C      35.51      13.49      27.26
C      36.37      13.50      26.38
C      37.32      13.51      25.42
C      38.18      13.52      24.55
H      47.14      18.86      24.26
H      45.34      20.58      20.71
C      40.17       8.84      17.85
C      40.17       9.71      18.72
H      34.98      11.69      29.56
C      40.17      11.53      20.54
C      40.17      10.66      19.68
H      33.19      15.25      27.84
N      47.01      21.08      21.91
N      47.58      20.53      23.04
H      41.93       6.52      17.31
H      38.39       8.29      15.54
H      41.92      13.55      20.77
H      38.42      11.76      22.55
H      40.17      15.30      24.30
N      32.73      14.03      29.51
N      33.30      12.90      30.06
C      46.87      19.45      23.39
C      45.80      19.27      22.49
C      45.95      20.34      21.58
N      40.72       6.05      15.63
N      39.59       6.61      15.07
C      34.37      12.56      29.32
C      34.52      13.48      28.26
C      33.46      14.38      28.43
C      41.07       6.78      16.71
C      40.16       7.85      16.87
C      39.25       7.68      15.80
C      41.16      14.54      22.53
C      41.16      13.54      21.54
C      40.17      12.53      21.54
C      39.18      12.53      22.55
C      39.18      13.53      23.54
C      40.17      14.53      23.53
C      44.82      18.27      22.50
C      43.96      17.39      22.51
C      43.02      16.43      22.52
C      42.15      15.55      22.53
