23

N      -0.61       7.56       4.40
H       0.83       6.94       0.97
N      -1.82       8.19       4.40
H       3.11       6.36       0.26
N      -1.87       9.00       3.38
H       4.62       7.54       4.13
N      -0.70       8.91       2.69
N       7.16       5.85       0.46
H       2.34       8.16       4.82
N       6.58       7.02       2.22
H       5.18       5.32      -0.18
H       8.66       6.74       1.73
H       6.68       7.63       3.03
C       1.66       7.10       1.65
C       2.95       6.76       1.26
C       4.05       6.93       2.12
C       3.80       7.43       3.41
C       2.51       7.77       3.81
C       1.43       7.62       2.93
C       5.39       6.59       1.65
C       5.78       5.85       0.55
C       7.62       6.57       1.49
C       0.07       8.02       3.33
