32

O      10.99      14.62       7.92
O      10.22      16.75       8.13
H      -0.00      14.58       3.00
H       1.76      10.77       1.98
H       7.94      17.08       7.32
H       9.56      13.14       6.61
O      -0.50      11.11       1.14
O      -1.45      13.09       1.74
H       4.78      11.61       3.63
H       2.93      15.58       4.73
H       6.61      12.12       4.94
H       4.94      16.26       5.62
C      10.12      15.53       7.75
C      -0.49      12.25       1.71
O       4.03      11.20       3.16
O       2.06      15.49       4.28
O       7.50      12.23       5.33
O       5.67      16.64       6.14
C       0.76      12.64       2.42
C       0.84      13.90       3.04
C       2.01      14.26       3.70
C       3.11      13.37       3.76
C       3.00      12.10       3.13
C       1.83      11.74       2.47
C       4.30      13.73       4.43
C       5.33      14.05       5.02
C       6.51      14.42       5.70
C       6.66      15.72       6.25
C       7.83      16.08       6.91
C       8.86      15.14       7.03
C       8.75      13.85       6.50
C       7.58      13.49       5.84
