14

C       4.59       9.69       8.90
C       3.69       9.52       7.90
C       1.35       9.69       7.11
C       2.27       9.56       8.10
O       6.78      10.30       9.49
O       6.44       9.21       7.51
O      -0.50       9.20       8.47
O      -0.82      10.45       6.58
H       1.87       9.52       9.12
H       4.06       9.37       6.89
H       4.30       9.91       9.92
C      -0.12       9.79       7.41
C       6.04       9.73       8.61
Cl       1.80       9.83       5.45
