31

Br       9.09       1.83       7.06
N       6.63       4.89       8.34
N       6.64       0.70       8.50
N       5.52       0.15       8.63
H       6.21      -3.94       6.66
N       5.42      -4.04       8.57
H       4.70      -3.97      10.52
H       4.69       2.34       9.42
H       4.77       4.87       9.26
O       5.81      -0.20       5.83
O       7.19      -1.98       5.50
O       9.91       4.94       8.15
O       8.87       5.45       6.19
H       7.34      -1.50       4.66
H       9.71       5.95       6.06
O       4.11      -2.03      11.95
O       5.01      -0.08      11.22
H       4.72       0.17      12.12
C       5.58       4.24       8.89
C       5.53       2.86       8.97
C       6.59       2.11       8.43
C       7.67       2.79       7.86
C       7.67       4.19       7.85
C       5.93      -1.96       7.49
C       5.88      -3.35       7.51
C       5.53      -1.25       8.64
C       5.03      -3.37       9.67
C       5.07      -1.98       9.76
C       6.29      -1.26       6.22
C       8.93       4.92       7.43
C       4.67      -1.40      11.07
