13

O       6.27       6.66       8.99
C       7.22       6.42       8.19
H       7.06       6.24       5.30
O       7.78       5.28       8.09
C       8.77       5.04       4.89
O       8.37       4.37       3.89
N       8.74       7.08       6.32
C       7.76       7.55       7.31
O       9.67       4.60       5.68
H       6.90       8.06       6.83
C       8.14       6.40       5.15
H       8.23       7.01       4.24
H       8.25       8.27       7.98
