16

C      12.06      13.71      19.00
C       9.92      12.38      18.53
C      12.96      14.27      19.89
C      10.74      12.89      20.82
C      11.65      13.45      21.72
O       8.96      11.76      19.10
F      12.32      13.87      17.68
F      11.38      13.29      23.03
C      13.79      14.78      22.18
H      13.83      14.81      19.51
H       9.88      12.35      21.20
O      13.61      14.64      23.43
O      10.09      12.52      17.28
O      14.76      15.40      21.62
C      10.93      13.00      19.44
C      12.78      14.15      21.27
