44

O       8.04       9.78       8.75
O       7.91       7.51       8.67
O      14.97       9.50       8.09
O      15.07       7.23       8.04
H      14.10       7.88      10.83
H      14.94       6.34      12.56
H      14.11       3.99      12.68
H      12.42       3.21      11.01
H      11.57       4.75       9.28
H      10.33       4.86       6.85
H      11.81       5.84       6.98
H       9.11       6.83       5.89
H      10.58       7.80       6.01
H      11.75       6.24       4.39
H      10.28       6.92       3.67
H      10.28       5.25       4.28
H      10.62       9.53      11.77
H       9.00       9.74      11.05
H      11.22      11.84      10.85
H       9.54      12.00      10.31
H       8.76      11.76      12.73
H       9.85      13.15      12.52
H      10.46      11.65      13.24
H      12.44       9.04       7.63
C       8.54       8.60       8.83
C      14.45       8.33       8.12
C      12.24       7.40       8.94
C      12.97       8.28       8.21
C      10.76       7.44       8.78
C      10.00       8.51       9.14
C      12.78       6.43       9.91
C      13.73       6.85      10.86
C      14.20       5.99      11.85
C      13.74       4.67      11.91
C      12.80       4.23      10.97
C      12.32       5.10       9.99
C      10.71       5.88       6.96
C      10.21       6.78       5.84
C      10.66       6.27       4.47
C      10.06      10.04      10.97
C      10.18      11.55      11.08
C       9.79      12.05      12.47
O      10.20       6.31       8.25
O      10.60       9.62       9.69
