16

C       7.67       6.71      20.52
O       7.84       7.87      17.05
C       7.73       6.84      19.14
C       7.75       3.11      20.21
O       7.63       9.17      18.91
C       7.68       5.35      20.91
Br       7.58       8.08      21.80
C       7.75       4.47      19.82
C       7.69       2.98      21.60
Br       7.84       1.74      18.94
C       7.73       8.05      18.31
S       7.80       5.30      18.32
S       7.63       4.52      22.42
O       7.69       1.96      23.70
C       7.66       1.77      22.43
O       7.61       0.65      21.82
