20

O       9.16       3.13       0.84
O       9.13       8.84       4.89
H       9.37       3.08       4.82
H       9.35       5.10       6.26
H       8.12       8.14       2.02
H       9.90       8.20       1.93
H       8.13       6.09       0.55
H       9.91       6.15       0.47
C       9.22       2.94       2.10
C       9.14       5.44       2.42
C       9.22       4.16       2.96
C       9.30       4.07       4.37
C       9.29       5.20       5.17
C       9.20       6.50       4.62
C       9.13       6.58       3.23
C       9.04       7.53       2.06
C       9.04       6.24       1.14
C       9.18       7.71       5.49
O       9.20       7.53       6.75
O       9.29       1.81       2.69
