74

C      13.12       5.14      17.30
C      11.97       5.28      18.10
C      11.47       4.17      18.80
C      12.17       2.97      18.78
C      13.32       2.83      17.99
C      13.76       3.91      17.22
C      11.66      11.31      18.73
C      12.27      10.10      18.38
C      13.65      10.07      18.09
C      14.40      11.24      18.16
C      13.79      12.44      18.56
C      12.42      12.47      18.83
C      -0.35       5.76      20.43
C       1.03       5.74      20.17
C       1.67       4.52      19.88
C       0.92       3.36      19.78
C      -0.46       3.38      20.01
C      -1.09       4.58      20.37
C       1.81      11.73      19.89
C       1.22      10.56      20.40
C      -0.06      10.62      20.97
C      -0.75      11.83      21.02
C      -0.18      12.98      20.45
C       1.10      12.93      19.90
C       6.02       9.18      19.54
C       5.25       8.01      19.52
C       5.87       6.78      19.26
C       7.24       6.72      19.02
H      13.50       6.01      16.77
H      10.57       4.29      19.40
H      11.84       2.13      19.40
H      14.65       3.80      16.59
H      10.59      11.32      18.95
H      14.11       9.12      17.83
H      15.47      11.23      17.94
H      11.96      13.41      19.13
H      -0.83       6.71      20.66
H       2.74       4.52      19.69
H       1.39       2.41      19.52
H      -2.17       4.59      20.56
H       2.80      11.67      19.45
H      -0.51       9.71      21.35
H      -1.75      11.87      21.44
H       1.53      13.82      19.44
H       5.53      10.13      19.74
H       5.27       5.87      19.25
H       7.73       5.77      18.81
H       8.00      10.03      19.30
C       8.02       7.89      19.03
C       7.39       9.13      19.29
N       1.17       8.15      20.40
N       3.13       6.90      19.86
N       3.23       9.28      19.96
N      12.08       7.69      18.10
N      10.16       8.97      18.69
N      10.01       6.60      18.60
C       1.91       9.26      20.26
C       1.82       6.99      20.16
C       3.80       8.07      19.80
C      11.31       6.59      18.26
C      11.46       8.86      18.38
C       9.47       7.82      18.76
O      14.36       0.81      17.18
O      14.64       1.50      19.33
C      14.16       1.60      18.15
C      14.56      13.71      18.73
O      15.70      13.87      18.19
C      -1.23       2.12      19.79
O      -2.39       1.97      20.29
C      -1.01      14.22      20.26
O      -1.17      15.05      21.20
O      -1.47      14.31      19.07
O      13.94      14.60      19.43
O      -0.63       1.27      19.05
