42

H       7.61       5.21      10.99
H      10.21      -3.92       8.31
H      11.36       2.45       9.27
H       6.46      -1.15      10.03
H      10.33      -1.42       8.18
H       7.49       2.72      11.12
H       6.32      -3.65      10.09
H      11.50       4.94       9.21
H       8.02      -0.27       6.41
H       6.46      -0.25       7.24
H       6.88       1.07       6.13
H       7.14       1.84       8.48
H       8.66       1.88       7.64
H      11.35       1.55      12.06
H       9.79       1.56      12.89
H      10.93       0.23      13.17
H       9.15      -0.59      11.66
H      10.68      -0.55      10.82
C       9.58       6.72       9.95
C       8.23      -5.42       9.35
C       9.56       5.23      10.08
C       8.26      -3.93       9.21
C       8.43       4.59      10.63
C       9.38      -3.30       8.67
C       8.37       3.21      10.69
C       9.45      -1.91       8.61
C       9.41       2.41      10.18
C       8.41      -1.12       9.12
C      10.54       3.05       9.66
C       7.27      -1.76       9.63
C      10.63       4.44       9.62
C       7.19      -3.15       9.67
C       9.27       0.93      10.15
C       8.55       0.36       9.15
C       7.90       1.19       8.04
C       7.29       0.39       6.89
C       9.91       0.11      11.26
C      10.53       0.91      12.40
O      10.72       7.28       9.77
O       7.10      -5.98       9.53
O       8.46       7.31      10.01
O       9.36      -6.02       9.28
