24

O      12.02       5.11       5.55
O      10.87       3.14       5.55
H      11.94       0.24       6.13
H      14.17       6.16       7.59
O      15.87       0.25       9.63
O      17.01       2.23       9.63
H      16.84       4.62       7.59
H      12.83      -0.28       9.04
H      15.95       5.13       9.04
H      13.72      -0.79       7.59
H      11.04       0.75       7.59
H      15.06       5.64       6.13
C      12.86       1.96       7.18
C      12.04       0.68       7.13
C      14.03       3.98       7.18
C      14.73       5.33       7.13
C      15.02       3.41       7.99
C      15.84       4.68       8.05
C      13.85       1.38       7.99
C      13.16       0.04       8.05
C      11.85       3.89       5.88
C      12.90       3.29       6.74
C      16.03       1.48       9.30
C      14.99       2.08       8.44
