35

O       0.62       8.90      14.22
O       0.16       7.18      12.80
H       2.87       1.57      22.80
H       3.26       2.86      20.68
O       3.32       5.80      20.53
O      -0.29       3.54      18.81
H      -0.52       4.86      21.39
H      -0.75       3.48      23.48
H       4.27       7.56      19.05
H       4.48       8.89      16.92
H      -0.79       5.51      14.35
H      -0.88       4.11      16.44
C       2.15       2.31      22.45
C       2.36       3.03      21.28
C       1.38       3.94      20.88
C       0.26       4.15      21.67
C       0.12       3.38      22.83
C       2.56       5.62      19.57
C       2.64       6.39      18.32
C       1.74       6.15      17.25
C       0.74       5.15      17.38
C       0.58       4.38      18.63
C       3.60       7.39      18.21
C       3.70       8.13      17.03
C       2.86       7.90      15.95
C       1.82       6.93      16.04
C       0.85       6.70      15.02
C      -0.06       5.66      15.16
C      -0.12       4.89      16.32
C       3.26       8.58      14.67
C       0.57       7.66      13.90
N       1.04       2.47      23.20
N       1.52       4.66      19.65
O       3.26       7.87      13.62
O       3.67       9.78      14.77
