44

H      14.58      15.26      13.98
H      10.21       8.49      13.32
H      11.14      10.19      17.68
H      15.85      16.31      15.78
H      13.29      13.80      19.18
H      12.89      13.66      13.22
H      12.32      12.16      18.54
H      10.35      12.73      11.70
H      10.55      15.05      12.40
H      10.75      14.50      14.08
H       9.20      14.24      13.24
H      10.47       8.78      15.79
H      16.95      17.32      17.36
H      18.50      15.92      18.57
H      17.37      15.91      19.94
H      18.17      17.41      19.49
C      12.12      12.08      17.47
C      11.45      10.99      17.00
C      11.16      10.83      15.61
C      11.45      11.92      14.73
C      10.66       9.61      15.11
C      10.48       9.46      13.75
C      10.91      11.85      13.39
C      15.59      15.96      17.88
C      10.21      10.33      11.47
C      14.78      15.56      20.30
C      13.86      14.31      18.40
C      14.79      15.25      18.85
C      10.56      10.57      12.88
C      15.27      15.77      16.53
C      10.29      14.25      13.11
C      17.72      16.50      19.09
C      13.58      14.07      17.05
C      14.29      14.87      16.09
C      12.65      13.06      16.58
C      12.34      12.96      15.20
C      13.07      13.79      14.28
C      14.01      14.69      14.71
N      10.78      12.97      12.60
N      16.61      16.84      18.20
O      10.44       9.16      10.99
O      15.34      16.64      20.70
O       9.70      11.29      10.77
O      14.16      14.74      21.08
