43

O       8.18       7.03       2.21
H      10.79       2.00      -0.51
O      16.12       7.03      -2.21
H      13.51       2.00       0.51
O       6.90       8.64       5.12
C       9.19       6.26       1.76
O      17.40       8.64      -5.12
C      15.11       6.26      -1.76
O       6.01       8.28       3.06
C      10.16       5.66       2.59
O      18.29       8.28      -3.06
C      14.13       5.66      -2.59
H      10.18       5.85       3.66
C      11.11       4.81       2.02
H      14.11       5.85      -3.66
C      13.19       4.81      -2.02
H      11.83       4.34       2.68
C      11.13       4.55       0.64
H      12.47       4.34      -2.68
C      13.17       4.55      -0.64
H      10.23       5.10      -1.25
H      14.07       5.10       1.25
C      10.20       5.23      -0.17
C      14.10       5.23       0.17
H       8.52       6.59      -0.28
C       9.23       6.06       0.36
H      15.77       6.59       0.28
C      15.06       6.06      -0.36
H       8.18       6.47       4.23
C       8.17       7.37       3.61
H      16.11       6.47      -4.23
C      16.13       7.37      -3.61
H       9.05       7.99       3.84
C       6.91       8.17       3.93
H      15.25       7.99      -3.84
C      17.39       8.17      -3.93
H      10.88       3.23      -1.78
C      12.15       3.60       0.00
H      13.42       3.23       1.78
C      11.47       2.69      -1.03
H      12.23       2.10      -1.56
C      12.83       2.69       1.03
H      12.07       2.10       1.56
