35

C      13.77       5.55      13.15
C      13.91       4.25      12.58
C      14.21       4.16      11.21
C      14.36       5.27      10.37
C      14.27       6.57      10.96
C      14.00       6.66      12.32
C      15.30       5.42       5.53
C      15.40       5.11       4.18
C      14.25       3.00       4.57
C      14.15       3.30       5.92
C      14.69       4.51       6.42
C      14.61       4.79       7.80
C      14.53       5.07       8.99
C      14.88       3.90       3.69
C      15.09       3.48       2.28
C      14.43       7.82      10.21
C      12.53       2.57      13.77
H      15.89       5.79       3.49
H      15.69       6.35       5.92
H      13.95       7.64      12.78
H      13.68       2.60       6.61
H      13.85       2.07       4.17
H      14.29       3.17      10.76
N      13.83       3.05      13.29
H      14.42       8.72      10.88
H      14.28       2.31      12.75
H      12.68       1.74      14.47
H      12.01       3.38      14.29
H      11.90       2.23      12.93
O      14.67       2.34       1.93
O      15.74       4.30       1.52
O      13.80       7.06      14.95
O      12.83       5.05      15.31
O      14.58       7.95       9.00
C      13.46       5.90      14.57
