28

H       6.60       4.29       2.33
O       6.39       6.31      -4.54
H       7.29       1.81      -0.38
H       5.66       8.85      -1.16
O       6.44      10.07       0.27
H       7.76       2.71      -3.27
O       6.18       1.74      -2.42
O       7.06       2.44       1.52
H       6.54       8.59       2.33
O       6.23       4.07      -4.44
O       6.76       7.53       4.55
O       6.35       5.30       4.53
C       6.48       5.22      -3.93
C       6.82       6.45      -0.34
C       6.76       5.20       0.37
C       6.66       5.23       1.78
C       6.65       7.65       1.78
C       6.68       7.68       0.40
C       6.58       6.42       3.97
C       7.07       2.65       0.31
C       6.27       8.97      -0.23
C       6.89       2.73      -2.58
C       6.65       6.42       2.47
C       6.80       5.24      -2.46
C       6.84       3.96      -0.36
C       6.79       4.00      -1.76
C       7.01       6.42      -1.75
I       7.97       8.07      -2.66
