28

O      27.37       8.28      12.08
O      27.83       9.34      10.14
H      27.16      15.85      17.38
H      28.04      17.88      13.68
H      27.16      11.98      15.26
H      28.04      14.01      11.56
O      27.37      20.52      18.80
O      27.83      21.58      16.86
C      27.60       9.32      11.40
C      27.60      20.53      17.55
C      27.60      19.22      16.82
C      27.36      17.98      17.49
C      27.36      16.76      16.82
C      27.60      16.70      15.44
C      27.85      17.90      14.75
C      27.85      19.12      15.42
C      27.60      15.46      14.76
C      27.60      14.39      14.18
C      27.60      13.16      13.50
C      27.36      11.96      14.19
C      27.35      10.74      13.52
C      27.60      10.64      12.12
C      27.85      11.88      11.45
C      27.85      13.10      12.12
Cl      27.03      17.83      19.19
Cl      28.18      20.47      14.39
Cl      27.03       9.39      14.55
Cl      28.17      12.02       9.75
