44

F      20.60      12.04       9.55
H      22.75      11.93      10.00
H      23.14      13.08      12.13
H      24.20      14.19      11.25
H      24.65      12.48      11.38
H      19.14      10.59       7.07
H      21.49      11.94       7.20
H      20.48      13.15       6.37
H      20.73      11.55       5.64
H      16.80      16.57       8.54
H      21.03      18.21       8.76
H      25.19      17.21       8.80
H      15.27      14.64       8.26
H      14.96      12.18       7.97
H      24.63      14.82       9.22
C      23.45      19.29       8.67
C      16.77      10.34       7.56
C      17.05      11.75       7.81
C      23.11      17.84       8.85
C      16.13      13.97       8.19
C      15.96      12.62       8.01
C      18.38      12.29       7.78
C      18.58      13.64       8.27
C      17.44      14.50       8.33
C      19.85      14.16       8.70
C      20.08      15.58       8.78
C      18.91      16.38       8.67
C      17.65      15.89       8.53
C      20.89      13.34       9.22
C      22.17      13.77       9.51
C      22.49      15.14       9.22
C      21.43      16.07       8.98
C      23.84      15.57       9.15
C      24.15      16.89       8.92
C      21.79      17.44       8.88
C      23.81      13.17      11.26
C      20.58      12.08       6.59
N      23.12      12.88       9.99
N      19.38      11.57       7.22
O      22.71      20.13       9.29
O      17.77       9.50       7.54
O      24.45      19.56       7.93
O      15.56       9.96       7.40
F      19.02      17.74       8.77
