20

O      10.13      -1.58      10.78
O       2.72     -11.27       9.15
O      11.27      -2.72       9.15
O       1.58     -10.13      10.78
H       4.48      -6.24      11.51
H       8.37      -6.61       8.41
H       6.61      -8.37       8.41
H       6.24      -4.48      11.51
C       4.43      -8.42       9.96
C      10.30      -2.55       9.96
C       2.55     -10.30       9.96
C       6.32      -5.33      10.83
C       6.54      -7.52       9.09
C       7.52      -6.54       9.09
C       5.33      -6.31      10.83
C       7.42      -5.43       9.96
C       5.43      -7.42       9.96
C       8.42      -4.43       9.96
C       3.57      -9.28       9.96
C       9.28      -3.57       9.96
