28

H       9.30       6.78       4.18
C       7.19       9.00       2.66
H       5.91       4.30       6.98
C       8.08       2.66       9.07
H       5.06       7.25       4.68
C       8.38       8.34       2.99
N       7.07       5.93       5.53
H      10.20       4.48       7.11
C       6.86       3.07       8.49
N       8.17       5.46       5.93
O       6.09      10.62       1.33
H       5.07       9.13       2.99
H       9.31       8.66       2.51
C       8.39       7.30       3.91
H      10.22       2.83       9.02
C       6.85       3.97       7.44
O       6.92       1.35      10.67
C       7.18       6.92       4.53
O       9.19       1.32      10.68
C       8.06       4.49       6.95
O       8.36      10.54       1.29
C       5.98       7.57       4.19
C       9.28       4.07       7.52
C       8.07       1.70      10.23
C       5.99       8.61       3.26
H       5.93       2.65       8.89
C       9.28       3.16       8.57
C       7.21      10.14       1.68
