25

N      29.11      19.26       9.85
N      26.95      11.89      13.76
H      28.17      16.16       9.06
H      25.09      15.81      14.08
H      26.65      15.19      14.68
O      27.34      13.86       8.39
O      27.51      19.56      12.61
O      26.96      18.18      14.34
O      26.80      12.62      10.22
H      23.84      13.44      13.23
H      23.97      14.75      12.02
H      24.41      13.07      11.58
C      27.27      18.43      13.12
C      26.76      16.03      12.63
C      27.31      17.24      12.22
C      27.84      17.25      10.90
C      27.76      16.11      10.07
C      27.18      14.91      10.50
C      26.69      14.91      11.81
C      25.88      14.09      12.82
C      26.04      15.36      13.78
C      27.10      13.71       9.63
C      28.51      18.40      10.36
C      24.43      13.82      12.38
C      26.50      12.87      13.32
