28

H      12.02      11.11      15.85
H      11.87       5.60      11.13
H      15.35       8.88      13.99
H       8.53       7.78      13.05
H      16.69       5.97      11.42
H       7.21      10.75      15.58
H       9.55      11.46      16.15
H      14.34       5.26      10.83
H      13.87       9.89      14.82
H      10.02       6.81      12.18
C       9.37      10.64      15.46
C      14.52       6.07      11.53
C       8.08      10.26      15.16
C      15.81       6.45      11.85
C       8.84       8.58      13.73
C      15.05       8.10      13.30
C      10.19       8.88      13.97
C      13.70       7.81      13.04
C      10.46       9.95      14.88
C      13.43       6.75      12.13
C      11.28       8.16      13.35
C      12.61       8.53      13.66
C      12.85       9.60      14.58
C      11.04       7.09      12.43
C      11.82      10.29      15.16
C      12.07       6.41      11.84
N       7.83       9.23      14.30
N      16.06       7.45      12.72
