15

N       2.83      -5.34       9.24
C       2.23      -6.15       8.37
C       1.01      -3.78       8.94
H       2.75      -3.50      10.20
O       0.99      -1.54       9.89
C       1.01      -5.86       7.74
H       2.75      -7.09       8.14
C       0.39      -4.65       8.05
H      -0.56      -4.38       7.59
O       0.99      -7.79       6.28
O      -0.72      -2.18       8.63
C       0.40      -2.44       9.16
C       2.23      -4.17       9.51
O      -0.72      -6.39       6.20
C       0.40      -6.72       6.70
