28

C      -2.61      10.42       1.59
C      -7.23       6.87      -3.65
H      -1.60      10.33       2.00
C      -3.50      11.41       2.02
C      -6.52      10.57      -0.14
H      -3.21      12.12       2.79
C      -4.77      11.44       1.45
N      -2.95       9.52       0.66
H      -5.49      12.19       1.77
C      -5.15      10.52       0.48
N      -3.46       7.53      -1.05
H      -4.86       4.52      -3.06
C      -4.19       9.55       0.11
N      -3.95       6.62      -1.91
H      -6.32       3.31      -4.68
C      -4.43       8.47      -0.85
N      -5.54       8.21      -1.58
H      -8.88       6.55      -5.02
C      -5.20       7.06      -2.21
N      -7.65       4.88      -4.92
H      -7.53       7.89      -3.38
C      -6.07       6.31      -3.10
H      -7.10      11.39       0.30
C      -5.75       5.00      -3.47
H      -6.45      10.70      -1.23
C      -6.56       4.32      -4.37
H      -7.05       9.62       0.01
C      -7.98       6.13      -4.55
