18

O      30.16      17.70      25.09
O      31.31      19.51      24.55
C      30.39      19.33      26.68
C      30.27      21.92      26.31
S      30.20      20.81      28.80
S      30.27      16.72      27.95
O      30.51      22.99      26.98
O      30.12      15.87      31.78
O      29.94      21.85      25.08
O      30.20      14.57      29.89
C      30.14      18.22      30.11
C      30.34      20.66      27.09
C      30.18      16.90      29.68
C      30.19      19.10      29.01
C      30.28      18.43      27.77
N      30.63      18.83      25.33
H      30.08      18.49      31.16
C      30.16      15.69      30.52
