34

H       0.87      11.35      14.47
H       0.67      11.38      11.98
H       0.19       7.10      12.03
H       0.40      11.44       7.73
H      -0.03       7.30       5.05
H       0.00       7.15       7.54
C       0.38       6.65      14.64
C       0.35      12.01       5.13
O       0.33       8.29       2.94
O      -0.23      10.49       2.89
O       1.07       8.23      16.76
O       0.69      10.47      16.65
H       1.34       6.36      15.09
H      -0.34       6.66      15.46
H       0.08       5.88      13.91
H       0.62      12.74       5.90
H       1.10      12.05       4.33
H      -0.60      12.31       4.67
C       0.07       9.41       3.50
C       0.82       9.31      16.12
C       0.68       9.22      14.64
C       0.73      10.42      13.91
C       0.62      10.44      12.54
C       0.43       9.23      11.84
C       0.35       8.03      12.57
C       0.48       7.99      13.96
C       0.32       9.23      10.43
C       0.25       9.25       9.21
C       0.20       9.29       7.80
C       0.29      10.53       7.13
C       0.25      10.64       5.74
C       0.12       9.44       4.99
C       0.05       8.20       5.66
C       0.07       8.12       7.04
