27

O      17.10       7.22       1.53
O       9.13      13.48       4.14
C       9.64      13.32       5.30
H      17.41      12.23       4.35
O       9.06      13.52       6.42
H      13.75      12.59       7.39
H      18.65      10.63       2.85
C      17.72       8.29       1.86
O      18.88       8.64       1.44
C      11.05      12.86       5.32
H      11.05      12.35       3.22
C      16.96      11.29       4.03
O      15.09      11.86       5.34
H      11.37      13.28       7.41
C      13.15      12.54       6.48
C      15.68      10.97       4.48
H      14.09       9.51       4.52
C      17.64      10.40       3.21
C      17.04       9.20       2.81
H      15.31       7.93       3.00
C      11.65      12.39       4.13
H      13.45      11.68       3.19
C      11.82      12.92       6.49
C      15.08       9.75       4.13
C      15.76       8.88       3.29
C      13.73      12.10       5.29
C      12.98      12.01       4.11
