32

H       7.32      14.24       9.75
H      11.66      25.09       9.84
H       7.36      25.11       9.74
H      11.61      14.22       9.86
C       9.46      12.58       9.81
C       9.52      26.75       9.79
C       8.25      14.79       9.78
C      10.72      24.54       9.82
C       8.30      24.55       9.76
C      10.68      14.78       9.83
C       8.27      16.18       9.77
C      10.71      23.15       9.83
C       8.30      23.16       9.77
C      10.68      16.17       9.82
C       9.48      16.90       9.79
C       9.50      22.42       9.80
C       9.46      14.09       9.81
C       9.51      25.24       9.79
C       9.49      20.94       9.80
C       9.48      18.39       9.79
N       9.94      19.00       8.69
N       9.03      20.33      10.91
N       9.95      20.33       8.69
N       9.03      19.00      10.90
Cl       6.76      17.03       9.69
Cl      12.21      22.30       9.91
Cl       6.79      22.32       9.70
Cl      12.19      17.01       9.89
O       8.32      12.02       9.80
O      10.66      27.31       9.79
O       8.38      27.31       9.79
O      10.60      12.01       9.80
