18

C       5.35      10.99      17.68
H       6.76      14.80      19.96
O       6.42      10.38      18.03
C       5.25      12.44      18.03
H       2.86      16.22      17.70
C       6.21      13.02      18.89
N       2.99      15.26      17.39
C       4.88      16.51      19.31
O       4.35      10.47      17.07
C       4.19      13.19      17.56
H       7.05      12.42      19.23
O       4.01      17.29      18.77
O       5.69      16.86      20.24
C       6.05      14.33      19.28
C       4.03      14.55      17.92
H       3.46      12.72      16.90
C       4.97      15.12      18.82
H       2.27      14.78      16.87
