44

C       1.63       9.86       5.81
C      -3.30      11.75      -4.66
H       1.29      12.23      -0.70
H      -1.16       8.16       0.78
C       3.57      10.41       2.54
C      -2.97       9.50      -1.48
H       1.45      13.68      -2.75
H      -1.28       6.72       2.82
N      -0.43      10.20      -0.36
N       0.56      10.24       0.44
H       2.43       9.99       6.55
H       0.77       9.38       6.31
H       1.33      10.83       5.40
H      -3.80      11.38      -5.57
O       1.03      14.02      -5.29
H      -3.40      12.84      -4.62
H      -3.75      11.27      -3.78
O      -0.91       6.38       5.31
O       1.34       6.48       5.55
O      -1.22      13.99      -5.43
O       2.17       9.01       4.78
O      -1.91      11.38      -4.80
H       3.83       9.99       1.55
H       3.87       9.71       3.33
H       4.08      11.37       2.67
H      -3.16      10.37      -0.83
H      -2.46       8.72      -0.90
H      -3.91       9.13      -1.89
O       2.16      10.69       2.59
O      -2.18       9.88      -2.63
C       0.25       6.80       4.99
C      -0.12      13.63      -4.92
C      -0.17      12.68      -3.76
C       0.33       7.73       3.82
C      -1.13      11.66      -3.71
C       1.28       8.76       3.75
C      -1.24      10.85      -2.54
C       1.33       9.60       2.62
C      -0.33      11.05      -1.47
C       0.43       9.38       1.54
C       0.63      12.08      -1.56
C      -0.50       8.33       1.62
C       0.72      12.88      -2.68
C      -0.56       7.53       2.75
