26

H       3.31       3.26       2.71
H       3.23       2.07       4.89
H       7.09       3.72       5.90
H       7.15       4.90       3.73
O       4.13       5.01       1.17
H       3.89       0.48       6.23
O       6.32       5.47       1.42
H       3.53      -0.42       8.51
H       5.88       2.77      10.17
O       4.68       1.31      11.89
H       6.21       3.71       7.91
O       3.57      -0.39      10.97
C       5.23       4.93       1.80
C       5.23       4.16       3.08
C       4.14       3.34       3.41
C       4.10       2.68       4.64
C       5.15       2.82       5.57
C       6.25       3.62       5.21
C       6.30       4.27       3.99
C       5.05       2.18       6.90
C       4.32       1.00       7.09
C       4.13       0.48       8.36
C       4.67       1.12       9.49
C       5.45       2.26       9.30
C       5.64       2.79       8.03
C       4.32       0.62      10.85
