15

C       6.30      16.82       5.69
H       5.88      18.54       4.45
N       7.15      15.34       8.08
H       6.42      13.66       4.45
C       6.49      15.43       5.69
C       5.99      17.46       4.50
N       7.55      14.36       8.87
C       6.30      14.74       4.49
H       5.88      14.95       2.38
N       5.87      16.79       3.33
C       6.91      14.73       6.90
N       7.15      13.40       6.96
C       5.99      15.45       3.34
H       6.42      17.40       6.61
N       7.55      13.21       8.21
