20

H       4.28       1.14       3.42
H       3.03       3.94       3.08
H       3.89       5.68       4.48
H       5.57       6.56       6.11
H       7.54       2.75       6.14
H       5.89       1.86       4.53
C       2.59       1.46       2.11
C       3.62       1.93       3.06
C       3.74       3.21       3.47
C       4.75       3.70       4.40
C       4.69       5.04       4.85
C       5.62       5.53       5.76
C       6.65       4.71       6.23
C       6.73       3.38       5.78
C       5.80       2.89       4.88
C       7.65       5.22       7.21
O       2.69       0.22       1.79
O       1.72       2.29       1.67
O       7.51       6.43       7.60
O       8.57       4.41       7.58
