20

O      10.21       1.55       0.34
O      15.30       6.49       1.09
H      12.30       2.32       2.79
H      13.94       4.15       3.01
C      14.36       6.50       0.20
C      11.16       1.62      -0.48
C      13.06       4.52       1.03
C      13.63       5.21      -0.03
C      13.36       4.70      -1.32
C      12.58       3.52      -1.50
C      11.99       2.86      -0.40
C      12.23       3.43       0.86
C      11.97       3.26       2.35
C      13.00       4.47       2.54
Cl      14.02       5.47      -2.71
Cl      12.29       2.97      -3.09
Cl      10.32       3.57       2.90
Cl      12.46       5.92       3.39
O      13.98       7.49      -0.47
O      11.48       0.71      -1.33
