26

O      13.77       7.62      26.24
O      12.84       9.67      25.97
H      12.19       5.08      17.51
H      13.70      10.09      23.46
H      12.69       5.43      19.93
H      11.51       5.87      22.04
H      11.99       6.24      24.43
H      11.43       9.54      19.56
H      10.95       9.18      17.16
F      13.43       9.83      20.93
C      11.56       7.11      17.18
C      12.04       6.05      17.97
C      12.30       6.26      19.32
C      12.10       7.52      19.92
C      11.61       8.57      19.11
C      11.34       8.36      17.77
C      13.00       8.90      21.82
C      13.22       9.16      23.17
C      12.28       6.99      23.69
C      12.02       6.78      22.34
C      12.37       7.73      21.36
C      12.85       8.20      24.12
C      11.15       6.86      15.78
C      13.15       8.50      25.55
O      11.46       5.73      15.24
O      10.44       7.75      15.19
