34

C      10.94      15.59      28.23
C       5.51      19.94      28.29
O       7.09      10.90      27.83
O       9.30      10.86      28.33
H       6.10      13.17      27.96
H       6.18      15.66      28.02
H      10.39      13.05      28.19
H       6.01      22.48      28.17
O       9.26      24.69      27.77
H      10.28      19.96      28.03
O       7.05      24.70      28.28
H      10.30      22.45      27.95
H      10.20      17.36      28.55
H       6.29      18.17      28.50
O      11.08      16.92      28.46
O      11.93      14.90      28.07
O       5.40      18.60      28.47
O       4.51      20.62      28.22
C       8.16      24.12      28.04
C       8.21      11.46      28.08
C       8.24      12.96      28.09
C       7.05      13.70      28.03
C       7.10      15.08      28.06
C       8.34      15.76      28.14
C       9.55      15.02      28.18
C       9.47      13.62      28.15
C       8.30      17.18      28.17
C       8.19      18.40      28.17
C       8.12      19.81      28.15
C       6.90      20.53      28.19
C       6.94      21.93      28.15
C       8.15      22.62      28.06
C       9.36      21.91      28.02
C       9.34      20.52      28.07
