16

O       8.54       4.20      11.03
O       6.77       3.41      12.15
C       6.91       4.47       6.09
H       3.74       2.16       8.58
C       6.41       3.91       7.39
C       5.21       3.18       7.39
H       8.05       4.65       8.58
O       7.90       5.30       6.14
O       6.34       4.16       5.02
C       7.11       4.10       8.58
C       4.68       2.70       8.58
C       6.59       3.60       9.78
C       5.36       2.92       9.78
C       7.33       3.75      11.07
H       4.70       3.01       6.44
H       4.96       2.56      10.73
