52

N      -1.01      30.24      18.16
N      -6.32      27.80      15.42
H       0.00      30.29      18.15
N      -5.87      26.61      15.44
H      -1.38      29.67      17.40
N      -0.76      34.63      20.05
H       0.09      32.32      19.35
N      -1.40      35.68      20.38
H      -3.39      34.85      19.26
O      -4.47      22.22      13.88
H      -4.66      33.05      18.11
O      -6.07      21.44      12.53
H      -3.19      28.96      18.62
O      -8.50      22.59      12.60
H      -4.60      27.27      17.47
O      -2.99      39.97      22.13
H      -6.25      30.35      14.95
O      -1.41      40.78      23.47
H      -4.77      32.04      16.04
O       1.05      39.67      23.40
H      -8.56      26.64      14.64
H      -2.84      24.77      13.40
H      -4.91      24.39      14.81
H       1.28      35.75      21.15
H       2.28      37.60      22.50
H      -2.49      37.80      21.17
C      -1.66      31.43      18.42
C      -0.96      32.47      19.07
C      -1.57      33.68      19.37
C      -2.92      33.91      19.01
C      -3.61      32.90      18.37
C      -3.03      31.64      18.07
C      -3.85      30.62      17.40
C      -3.82      29.26      17.79
C      -4.62      28.32      17.16
C      -5.49      28.71      16.12
C      -5.56      30.06      15.75
C      -4.74      31.00      16.37
C      -6.64      25.64      14.78
C      -8.00      25.74      14.39
C      -8.60      24.70      13.70
C      -7.88      23.54      13.32
C      -6.51      23.44      13.74
C      -5.94      24.47      14.48
C      -5.64      22.31      13.39
C      -0.69      36.65      21.09
C       0.68      36.61      21.45
C       1.23      37.63      22.20
C       0.46      38.74      22.64
C      -0.92      38.80      22.25
C      -1.45      37.76      21.47
C      -1.82      39.90      22.62
