18

O       4.49      10.18       3.26
C       4.41       8.07       1.36
O       4.49       4.73      -0.11
C       4.41       7.44      -0.99
C       4.40       9.17      -2.79
H       4.41       7.79       2.41
O       4.49      10.38      -3.15
H       4.41       6.66      -1.76
C       4.41       9.78      -0.37
O       4.32      11.71       1.67
O       4.32       5.35       2.01
C       4.41       9.42       0.98
H       4.41      10.84      -0.65
C       4.41       7.08       0.37
O       4.32       8.23      -3.68
C       4.40      10.48       2.03
C       4.41       8.79      -1.35
C       4.40       5.65       0.76
