16

C       5.70      -4.48       7.42
C       3.51      -4.73       5.69
C       4.49      -5.72       5.70
C       4.71      -3.50       7.40
C       2.57      -2.56       6.51
C       5.59      -5.59       6.57
C       3.62      -3.62       6.53
H       4.78      -2.63       8.05
O       2.76      -1.55       7.27
O       6.50      -7.62       5.76
H       2.65      -4.81       5.03
C       6.65      -6.65       6.58
H       4.43      -6.59       5.05
O       7.62      -6.49       7.40
O       1.57      -2.74       5.73
H       6.56      -4.41       8.08
