45

H       4.45      11.77       4.30
H       9.65       5.03      -4.71
H      10.75       6.38       4.43
H       6.77       6.27       1.22
H       6.81      10.58      -1.25
H       6.71      10.58       1.20
H       6.80       6.27      -1.25
C       6.56       9.67       4.97
C       8.57       7.91      -4.77
C       8.56       8.55       4.71
C       7.12       9.68      -5.02
C       6.16       9.29       3.68
C       8.12       7.67      -3.48
C       8.18       8.12       3.43
C       6.63       9.49      -3.73
C       6.98       8.54       2.84
C       7.15       8.49      -2.88
C       6.76       7.21       0.68
C       6.77       9.63      -0.72
C       6.72       9.63       0.67
C       6.79       7.21      -0.72
C       6.85       8.42      -1.43
C       6.76       8.42       1.38
S       5.52      10.84       5.90
S      10.00       7.01      -5.42
S      10.32       8.34       5.15
S       6.67      11.11      -6.07
N       7.75       9.29       5.47
N       8.08       8.89      -5.52
O       6.34      11.47       6.88
O       5.30      11.96       4.76
O      10.25       7.45      -6.75
O      11.00       7.00      -4.39
O       9.39       5.51      -5.53
O      11.05       8.74       3.98
O      10.57       8.89       6.43
O      10.42       6.73       5.28
O       6.62      10.53      -7.43
O       5.41      11.63      -5.62
O       7.83      12.00      -5.87
O       4.25      10.21       6.15
F       4.97       9.71       3.20
F       8.67       6.66      -2.76
F       9.01       7.34       2.70
F       5.66      10.29      -3.24
