24

H       5.56       9.90       8.73
H       3.91      11.29       7.43
H       0.89       8.38       8.48
H       2.64       7.16       9.78
H       1.77      11.63       6.59
H       4.79      11.12       4.95
H      -2.47       9.73       6.25
H       0.55      12.64       5.20
H      -1.20      13.85       3.90
H      -0.33       9.38       7.09
C       4.51       9.62       8.66
C       3.60      10.37       7.93
C       2.27       9.93       7.82
C       1.91       8.76       8.51
C       2.87       8.08       9.23
C       1.35      10.70       6.99
C      -3.07      11.40       5.02
C      -2.16      10.65       5.75
C      -0.83      11.08       5.86
C      -0.47      12.26       5.17
C      -1.44      12.94       4.45
C       0.09      10.32       6.69
N       4.16       8.49       9.30
N      -2.72      12.53       4.38
