20

H       1.41       0.87      14.28
H       1.43      -1.09      15.82
H      -2.85      -1.44      15.44
H      -2.87       0.52      13.89
C      -0.76       3.97      11.40
C       0.50      -0.73      15.39
C      -0.71      -1.39      15.73
C      -1.92      -0.92      15.18
C      -1.93       0.17      14.32
C      -0.73       0.83      13.99
C       0.48       0.36      14.54
C      -0.69      -2.50      16.61
C      -0.74       1.93      13.10
C      -0.75       2.87      12.33
C      -0.68      -3.45      17.37
C      -0.67      -4.55      18.29
O       0.38       4.39      11.01
O      -1.90       4.40      11.03
O      -1.81      -4.98      18.68
O       0.47      -4.99      18.65
