32

H       1.35       6.41       8.02
H       3.84       6.58       8.07
H       3.56      10.83       8.66
H       0.65      12.46      11.13
H       1.56      14.75      11.49
H       2.83      15.89       9.67
H       3.19      14.71       7.50
H       2.28      12.43       7.15
H      -0.86       7.47       8.22
H      -1.18      11.61       9.29
C      -2.64       9.38       8.80
C      -1.15       9.52       8.76
C       3.82       8.73       8.34
C       1.84       7.37       8.17
C       3.21       7.47       8.19
C       3.06       9.87       8.53
C       5.31       8.83       8.37
C       1.65       9.80       8.59
C       1.03       8.52       8.39
C      -0.38       8.42       8.43
C      -0.54      10.77       9.03
C       0.82      10.94       8.91
C       1.41      12.29       9.12
C       1.21      12.96      10.34
C       1.72      14.25      10.54
C       2.44      14.88       9.52
C       2.64      14.22       8.30
C       2.14      12.94       8.11
O      -3.29      10.22       9.50
O       5.93       7.88       8.96
O      -3.14       8.42       8.13
O       5.83       9.86       7.83
