40

H       7.93       4.71      14.78
H       8.26       7.24      14.67
H      10.78       8.02      13.28
C      11.33       5.55      14.92
C       8.97       4.75      14.42
C      11.47       5.48      13.38
H       9.41       3.76      14.61
C       8.49       3.76      10.82
H      11.64       4.43      13.08
C      12.33       4.34      16.89
H      11.87       6.43      15.31
N       8.90       3.78      12.22
N      11.96       4.38      15.47
H       8.08       5.61      12.63
O       9.30       4.20      19.64
H       9.70       3.17      12.39
H       8.47       2.71      10.48
H       9.13       4.33      10.14
H       7.47       4.16      10.74
O      12.52       5.87       8.42
H      11.52       3.51      15.16
O       8.25       6.21      19.83
H      13.11       3.57      17.02
H      11.51       4.12      17.58
H      12.78       5.30      17.16
O      11.30       7.79       8.32
H      12.36       6.03      13.05
C       8.98       5.04      12.90
C      11.00       6.36      10.11
F       9.82       8.23      15.50
C       9.26       5.62      17.82
C       9.79       5.80      15.22
C      10.22       6.01      12.63
C       9.88       7.38      13.26
C       9.36       7.18      14.67
F       8.91       8.06      12.49
C      10.57       6.18      11.23
C       9.50       5.71      16.64
C       8.94       5.32      19.19
C      11.63       6.68       8.86
