46

C       6.15       4.63       4.87
C       6.45       5.10       3.54
C       5.56       2.82       6.45
H       5.75       1.29       4.25
H       5.36       1.75       6.60
C       5.49       3.69       7.49
C       5.77       5.08       7.29
H       5.24       3.35       8.50
C       6.12       5.54       5.97
H       5.43       5.68       9.34
C       6.43       6.91       5.76
H       6.71       8.84       6.70
C       6.71       7.35       4.44
H       6.92       8.41       4.29
C       6.71       6.52       3.35
C       5.72       6.01       8.34
C       6.07       7.35       8.12
C       6.44       7.79       6.86
H       6.19       3.07      -0.09
H       7.90       3.22       0.41
H       8.10       5.31      -0.94
H       7.42       4.00      -1.94
H       6.35       5.26      -1.28
C       6.23       1.67       1.73
C       7.00       3.78       0.13
C       7.23       4.65      -1.07
C       7.06       7.19       2.03
C       8.54       7.04       1.64
C       8.89       7.88       0.42
H       8.31       7.55      -0.46
H       8.67       8.94       0.58
H       9.96       7.80       0.17
H       9.17       7.35       2.50
H       8.77       5.98       1.47
H       6.43       6.84       1.21
H       6.85       8.27       2.16
O       7.16       8.84       9.58
O       4.89       8.66       9.70
O       7.35       1.17       1.39
O       5.08       1.29       1.33
O       6.62       4.63       1.23
C       6.03       8.35       9.23
C       6.45       4.13       2.49
C       6.24       2.77       2.76
C       5.94       2.35       4.06
C       5.89       3.25       5.12
