30

C       0.25      10.07       6.86
H      -0.67      13.69       7.62
C      -0.10      11.16       5.76
C      -0.05      11.57       8.47
C       1.18      11.10       7.59
H       1.53      12.85       6.01
H      -2.32      11.83       6.25
H       0.52       9.04       6.62
C       2.56      10.82       8.11
C       3.55      10.50       6.98
H       3.20       9.67       6.36
H       3.68      11.37       6.31
H       4.53      10.24       7.38
H       2.91      11.69       8.69
H       2.50       9.99       8.82
O       1.03       9.76       1.34
O      -1.25       9.68       1.42
O       1.05      12.86      12.95
O      -1.23      12.95      12.84
H      -1.69       9.88       8.22
C      -0.09      12.65      12.37
C       0.82      12.19       6.52
C      -0.40      12.65       7.37
C      -0.10      10.88       4.38
C      -0.04      11.82       9.86
C      -0.12       9.98       1.89
C      -0.97      10.53       7.71
C      -1.33      11.62       6.65
C      -0.09      10.57       3.20
C      -0.04      12.09      11.05
