12

O       2.95       6.47       4.45
O       4.64      11.90      -4.45
C       4.02       7.50       2.69
C       3.57      10.87      -2.69
C       3.94       8.15       1.65
C       3.66      10.22      -1.65
C       3.85       8.86       0.52
C       3.75       9.51      -0.52
C       4.07       6.70       3.89
C       3.52      11.67      -3.89
O       5.21       6.30       4.28
O       2.38      12.06      -4.28
