20

N       3.50       3.57      17.96
N       2.15       5.28      17.95
N       3.20       5.65      17.16
C       3.99       4.59      17.19
O      -1.91      10.10      18.88
H       4.93       4.53      16.65
C       2.34       4.03      18.43
H       1.67       3.50      19.10
O      -3.24       8.39      19.48
C       1.07       6.16      18.22
H       2.39       7.84      18.42
C       1.36       7.51      18.45
H       0.49       9.42      18.96
C       0.31       8.37      18.73
H      -2.30       6.18      18.66
C      -1.01       7.90      18.80
H      -0.44       4.60      18.11
C      -1.27       6.54      18.59
C      -0.24       5.65      18.29
C      -2.12       8.86      19.07
