19

C       2.27       2.29       0.27
C       2.27       7.30       0.27
H       3.22       4.79      -0.23
H      -0.21       2.65       1.26
O       1.66       1.24       0.69
O       1.66       8.35       0.68
H      -0.21       6.94       1.26
O       3.41       2.31      -0.30
H      -2.26       5.69       1.86
O       3.42       7.28      -0.30
H      -2.26       3.90       1.86
H      -1.51       4.80       3.20
C       2.22       4.79       0.21
C       1.58       3.59       0.50
C       1.58       6.00       0.50
C       0.29       3.60       1.07
C       0.29       6.00       1.07
C      -0.35       4.80       1.39
C      -1.67       4.80       2.10
