27

O       3.79       2.04      13.23
C       3.31      -3.06      20.10
O       1.63       1.44      13.57
C       5.73      -2.79      20.16
C       4.55      -3.35      20.69
H       1.30       0.04      15.63
O       3.55      -4.96      22.09
H       5.39       1.01      14.67
C       4.62      -4.31      21.83
O       5.73      -4.43      22.44
H       6.21      -0.31      16.63
H       6.62      -1.55      18.63
H       2.40      -3.48      20.51
H       6.67      -3.02      20.66
O       1.22      -2.83      17.43
O       1.04      -0.82      18.89
C       2.87       1.43      13.86
C       3.31       0.60      15.04
C       2.37      -0.05      15.85
C       4.68       0.49      15.32
C       2.84      -0.78      16.92
C       5.14      -0.26      16.40
C       4.21      -0.89      17.23
S       1.86      -1.70      18.09
C       4.47      -1.70      18.43
C       3.30      -2.23      18.99
C       5.70      -1.97      19.03
