26

H       8.84       6.17      10.76
H      10.42       5.74      11.86
H       3.49       5.33      12.80
H       4.30       5.09      14.26
H       5.80       5.72      15.46
H       4.58       5.85      10.76
H      10.07       5.82      15.45
H      11.21       5.79      13.36
C       7.91       5.78      17.06
C       6.72       6.02      10.65
C       7.92       5.77      15.57
C       9.18       5.91      13.49
C       6.73       6.11       9.15
C       5.48       5.74      12.72
C       9.14       5.83      14.87
C       5.50       5.87      11.34
C       6.72       5.75      14.87
C       7.93       6.04      11.34
C       6.71       5.80      13.46
C       7.95       5.92      12.74
N      10.39       6.05      12.82
N       4.27       5.61      13.39
O       6.77       5.89      17.64
O       7.87       6.13       8.57
O       9.03       5.68      17.66
O       5.60       6.14       8.56
