40

N       3.80      14.78      23.73
N       1.48      14.57      22.98
N       0.36      14.32      23.60
H       5.82      12.98      18.94
H       7.26       9.92      21.64
N       2.45      14.59      23.95
H       5.91      20.22      21.24
H       7.49      18.52      24.90
N       3.91      16.45      21.97
N       4.60      17.54      21.81
N       4.18      16.01      23.24
H      -2.35      14.88      25.44
H       0.76      12.66      27.47
N       5.29      12.98      23.97
N       5.95      12.17      23.18
N       4.48      13.72      23.16
H       2.56      14.33      26.07
H       5.42      16.60      24.88
H       4.07      13.90      21.06
C       6.27      12.12      19.42
C       6.24      11.72      20.76
C       7.01      10.55      20.80
C       6.45      19.98      22.15
C       6.28      18.91      23.04
C       7.25      19.11      24.03
C      -1.74      14.30      26.12
C      -0.41      13.87      25.97
C      -0.14      13.18      27.16
C       0.59      14.16      24.96
C       1.94      14.34      25.19
C       5.35      17.81      22.95
C       5.08      16.82      23.87
C       5.60      12.41      21.86
C       4.63      13.40      21.84
N       7.46      10.27      19.56
N       7.00      11.25      18.70
N       7.95      20.23      23.75
N       7.46      20.77      22.59
N      -1.22      13.20      27.96
N      -2.22      13.90      27.31
