32

H       1.34      14.17       6.14
H       1.34      10.28       7.97
H       3.26      14.14      10.45
H       3.17      14.18       7.96
H       3.26      10.31       3.66
H       3.17      10.27       6.16
H       2.92      15.16       2.98
H       2.92       9.29      11.13
C       2.32      12.21       2.02
C       2.32      12.24      12.09
C       2.33      12.25       3.51
C       2.33      12.20      10.61
C       1.78      13.34       4.21
C       1.76      13.32       5.61
C       1.78      11.11       9.90
C       1.76      11.13       8.51
C       2.83      13.30       9.89
C       2.78      13.32       8.51
C       2.84      11.15       4.22
C       2.78      11.13       5.61
C       2.26      12.22       6.32
C       2.26      12.23       7.80
C       1.18      14.53       3.52
C       1.18       9.92      10.60
O       3.30      11.63       1.45
O       1.33      12.77       1.45
O       3.30      12.82      12.67
O       1.33      11.68      12.66
O       1.93      15.34       2.80
O      -0.02      14.77       3.70
O       1.93       9.11      11.32
O      -0.02       9.68      10.42
