28

H       8.25       6.89      16.54
H       7.77       6.61      19.43
H       6.58       6.21      21.79
H       1.23       6.87      20.51
H       1.71       6.59      17.62
H       2.91       6.20      15.26
C       4.96       6.16      14.52
C       4.52       6.15      22.53
O       5.97       6.05      13.77
O       3.74       6.01      14.09
O       3.52       6.04      23.29
O       5.75       6.01      22.96
O       1.93       6.75      21.18
C       5.50       6.43      20.24
C       3.08       6.57      20.45
O       7.55       6.76      15.87
O       7.82       6.70      18.45
C       2.95       6.57      19.07
O       6.75       6.33      20.77
C       4.09       6.51      18.23
O       1.67       6.68      18.60
O       2.73       6.32      16.28
C       3.99       6.42      16.81
C       6.40       6.59      16.60
C       6.53       6.59      17.98
C       5.39       6.51      18.83
C       4.36       6.41      21.08
C       5.13       6.42      15.98
