28

Cl      14.08      -0.00      20.55
Cl      11.37       1.56      16.12
Cl      16.78      -1.56      18.35
Cl      14.07       0.00      13.92
H       9.67       2.54      18.19
H      11.83       1.29      21.71
H      16.31      -1.29      12.76
H      18.47      -2.54      16.28
O      18.39      -2.49      12.31
O      19.53      -3.15      14.18
C      18.55      -2.58      13.58
C       9.59       2.58      20.89
O       8.62       3.15      20.30
O       9.76       2.49      22.16
C      10.65       1.97      20.03
C      10.53       2.04      18.64
C      11.52       1.47      17.84
C      12.65       0.82      18.40
C      12.73       0.77      19.82
C      11.75       1.34      20.62
C      13.64       0.25      17.59
C      14.50      -0.25      16.88
C      15.50      -0.82      16.07
C      15.41      -0.77      14.65
C      16.39      -1.34      13.85
C      17.49      -1.97      14.44
C      17.61      -2.04      15.83
C      16.63      -1.47      16.63
