29

Cl       8.64      -6.23      14.94
Cl       6.40      -7.57      16.76
O       6.99      -6.12      21.84
O      12.07      -3.45      17.88
O       6.18      -7.26      20.03
O      10.98      -4.14      16.00
H      10.26      -3.20      19.74
H       8.50      -4.24      21.15
H       8.28      -8.33      17.91
H      12.28      -9.56      17.14
H      13.16      -8.02      17.00
H      12.94      -8.78      18.60
H      11.37      -6.86      18.32
H      10.48      -8.37      18.49
H      10.21      -8.48      15.97
H      11.14      -6.99      15.82
C      10.45      -7.53      16.48
C      11.15      -7.81      17.81
C      12.46      -8.59      17.63
C       6.96      -6.42      20.60
C       9.19      -5.60      17.62
C       9.97      -4.53      18.07
C       9.68      -4.04      19.35
C       8.68      -4.62      20.15
C       7.94      -5.73      19.71
C      11.10      -3.99      17.26
C       8.21      -6.18      18.42
C       8.00      -7.35      17.49
C       9.17      -6.71      16.58
