28

C       0.94       1.44       5.19
H       1.84       6.46       9.81
H       1.98       2.26       9.67
C       1.57       0.38       4.52
C       4.53       4.61       9.76
H      -1.01       2.38       4.59
C       3.18       4.71       9.36
N       3.83       6.54      10.52
H       2.52      -0.10       4.76
H       0.72      -0.07       7.17
H       1.13       0.13       8.80
N       0.85      -0.01       3.45
N       4.91       5.71      10.46
H       3.28       5.77       5.76
H       3.65       6.02       7.41
N       0.81       0.58       7.95
N       3.01       5.63       6.73
C       2.80       5.95       9.88
N      -0.28       0.78       3.41
Cl       2.12       4.07       4.38
Cl       5.61       3.34       9.41
C       1.43       1.79       7.64
C       1.97       2.61       8.64
C       2.51       3.87       8.36
C       2.52       4.36       7.03
C       2.00       3.52       6.03
C      -0.23       1.64       4.44
C       1.45       2.26       6.30
