37

O      -3.49       4.50      10.20
O      -5.01       2.69      11.79
O      -6.45       3.64      13.89
O      -6.87       6.32      14.25
O      -5.26      10.42      11.36
H      -4.57       3.06       9.11
H      -3.39       4.07       8.21
H      -4.95       4.78       8.71
H      -6.29       2.54      10.13
H      -7.11       2.44      11.71
H      -6.08       1.07      11.15
H      -6.06       2.77      13.68
H      -7.12       6.54      16.27
H      -5.43       6.71      15.72
H      -6.19       5.08      15.80
H      -6.14      10.58      11.78
H      -3.71      10.37      10.03
C      -6.00       5.91      13.28
C      -5.33       6.85      12.44
C      -6.49       9.00      13.41
C      -2.54       6.82       9.75
C      -4.42       6.35      11.44
C      -4.32       4.95      11.21
C      -5.04       4.06      11.99
C      -5.82       4.54      13.07
C      -4.15       4.08       8.99
C      -6.20       2.16      11.16
C      -3.68       7.26      10.63
C      -6.36       6.14      15.60
C      -3.97       8.60      10.65
C      -4.99       9.09      11.51
C      -5.59       8.27      12.47
O      -7.34       9.78      12.81
O      -6.31       8.95      14.66
O      -1.45       6.54      10.35
O      -2.74       6.85       8.49
O      -3.31       9.49       9.86
