16

C       5.24       2.48       4.03
C       4.17       1.99       3.36
C       5.28       3.25       5.26
C       4.23       3.81       5.90
C       4.24       1.23       2.09
H       6.20       2.24       3.58
H       6.27       3.38       5.70
H       3.21       3.76       5.53
O       2.16       3.16       3.40
N       2.78       2.18       3.83
O       2.32       1.32       4.60
O       3.23       4.84       7.71
C       4.35       4.54       7.18
O       5.50       4.80       7.65
O       3.11       0.97       1.56
O       5.38       0.93       1.63
