18

O       5.98       8.34       5.85
O       3.74       8.34       6.21
H       6.97      10.62       5.77
O       3.63      15.31       6.17
H       2.65      13.04       6.28
H       7.00      14.15       5.65
H       2.64       9.52       6.42
O       7.21      13.17       5.64
O       2.42      10.49       6.43
C       4.74      14.71       5.97
C       4.88       8.95       6.04
C       4.79      13.24       5.99
C       4.84      10.42       6.05
C       6.02      12.54       5.83
C       3.60      11.12       6.23
C       6.02      11.15       5.87
C       3.60      12.52       6.18
O       5.86      15.33       5.77
