41

H       2.32       4.63       2.82
H       2.29       3.06       4.50
H       3.68       5.98       1.20
H       3.67       1.51       5.91
H       3.00       5.95      -1.25
H       3.01      -0.94       5.98
H       1.10       4.51      -1.93
H       1.11      -1.69       4.58
H      -3.39      -2.24       0.83
H      -3.38       0.71      -2.29
H      -5.23      -3.45      -0.32
H      -5.23      -0.50      -3.44
H      -6.18      -2.57      -2.44
H      -0.59       3.11      -1.33
H      -0.61      -1.15       3.17
C       2.11       4.62       1.75
C       2.09       1.99       4.53
C       2.84       5.38       0.85
C       2.83       1.13       5.33
C       2.47       5.36      -0.50
C       2.47      -0.22       5.36
C       1.41       4.56      -0.88
C       1.41      -0.64       4.58
C       0.74       3.78       0.08
C       0.73       0.28       3.77
C      -0.87       1.87       0.22
C      -0.88       0.32       1.86
C      -2.20       0.04       0.03
C      -3.26      -0.69      -0.66
C      -3.79      -1.87      -0.11
C      -3.79      -0.20      -1.87
C      -4.83      -2.54      -0.75
C      -4.83      -0.88      -2.51
C      -5.35      -2.05      -1.95
N       1.07       3.83       1.39
N       1.06       1.59       3.76
N      -0.30       2.97      -0.36
N      -0.32      -0.20       2.99
N      -0.52       1.56       1.48
N      -1.73       1.17      -0.54
N      -1.73      -0.47       1.19
