26

Br       0.97      27.89       7.10
Br       0.97      33.64       0.01
O       2.90      31.34       9.17
O       1.02      30.08       9.21
O       2.90      30.19      -2.07
O       1.02      31.44      -2.11
H       1.30      28.71       4.37
H       1.31      32.82       2.73
H       2.82      28.93       0.05
H       2.83      28.79       2.54
H       2.81      32.60       7.05
H       2.83      32.74       4.56
C       1.97      30.67       8.61
C       1.97      30.86      -1.50
C       1.99      30.62       7.12
C       2.00      30.91      -0.01
C       1.57      29.52       6.34
C       1.63      29.58       4.95
C       1.58      32.00       0.76
C       1.63      31.95       2.16
C       2.46      29.77       0.66
C       2.47      29.69       2.05
C       2.46      31.76       6.44
C       2.47      31.84       5.06
C       2.06      30.74       4.29
C       2.06      30.79       2.82
