34

H       5.95       9.53       4.65
H       5.94       9.75       2.18
H       6.13       5.45       1.85
H       6.01      10.91      -1.89
H       6.01       6.60      -2.21
H       5.99       6.82      -4.67
H       6.06       6.64      -0.10
H       5.99       9.71       0.07
H       6.20       4.89       5.43
H       6.25       4.15       3.82
H       5.92      11.45      -5.46
H       5.80      12.18      -3.87
C       6.06       7.36       6.14
C       5.97       8.98      -6.18
C       6.05       7.39       4.67
C       5.99       8.64       4.01
C       5.99       8.76       2.64
C       6.04       7.60       1.83
C       6.10       6.35       2.47
C       6.11       6.21       3.87
C       6.04       7.63       0.38
C       6.01       8.73      -0.41
C       6.00      10.00      -2.50
C       6.01       8.76      -1.86
C       6.01       7.59      -2.67
C       6.01       7.71      -4.04
C       6.00       8.95      -4.70
C       6.01      10.14      -3.91
N       6.15       4.96       4.42
N       6.05      11.39      -4.45
O       6.18       6.23       6.73
O       5.94       8.47       6.77
O       5.96      10.13      -6.77
O       5.95       7.87      -6.80
