72

H       4.19      -1.84      10.73
H       3.24      -2.00       8.20
H      10.56      -5.12      12.57
H       8.38      -3.68      13.25
H      13.18      -5.20       9.58
H      15.07      -6.08      10.93
H      12.58      -8.63      13.04
H      10.57      -7.82      11.80
H       7.62      -0.92      12.03
H       6.97       0.18      14.18
H       4.21      -2.78      15.02
H       4.76      -4.02      12.92
H      11.30      -7.58       5.60
H      12.25      -7.42       8.14
H       4.93      -4.30       3.76
H       7.11      -5.74       3.09
H       2.31      -4.23       6.76
H       0.41      -3.34       5.41
H       2.90      -0.80       3.30
H       4.92      -1.60       4.54
H       7.87      -8.51       4.31
H       8.51      -9.61       2.16
H      11.27      -6.65       1.31
H      10.73      -5.41       3.42
C       9.66      -6.28       6.41
C       4.61      -2.38       9.89
C       4.13      -2.46       8.61
C       5.06      -3.28       7.87
C       4.95      -3.52       6.50
C       5.91      -4.23       5.78
C       9.72      -4.84      11.95
C       8.63      -4.11      12.28
C       7.82      -3.99      11.10
C       8.86      -6.16       5.28
C      11.71      -6.44      10.58
C      13.00      -5.96      10.33
C      14.06      -6.46      11.09
C      12.68      -7.86      12.27
C      11.56      -7.41      11.57
C       9.26      -6.87       4.04
C       8.63      -8.06       3.67
C       8.99      -8.68       2.47
C       4.96      -2.39      14.33
C       5.26      -3.08      13.16
C       5.83      -3.15       9.92
C      10.88      -7.05       6.45
C      11.36      -6.96       7.72
C      10.43      -6.15       8.46
C      10.54      -5.90       9.84
C       9.57      -5.19      10.55
C       5.77      -4.58       4.39
C       6.86      -5.32       4.05
C       7.67      -5.44       5.24
C       6.63      -3.27      11.05
C       3.78      -2.99       5.76
C       2.48      -3.46       6.00
C       1.42      -2.97       5.24
C       2.80      -1.57       4.07
C       3.93      -2.01       4.76
C       6.23      -2.56      12.30
C       6.85      -1.36      12.67
C       6.50      -0.75      13.86
C      10.53      -7.03       2.01
C      10.23      -6.35       3.18
N       9.39      -5.72       7.65
N       7.09      -4.76       6.30
N      13.92      -7.39      12.05
N       9.93      -8.18       1.65
N       6.09      -3.71       8.69
N       8.40      -4.67      10.04
N       1.56      -2.03       4.29
N       5.56      -1.25      14.69
