25

H       5.75      11.94       0.87
H       2.31      14.01       0.81
H       3.53      16.00      -0.80
H       7.87      14.00      -0.23
C       5.27      12.85       0.49
C       4.66      14.00      -3.98
C       4.64      13.90       4.05
C       5.95      13.96      -0.40
C       4.65      13.90       5.49
C       4.68      14.00      -1.35
C       5.28      15.07       0.49
C       4.61      13.96       1.42
C       4.02      15.11      -0.42
C       3.34      14.00       0.46
C       4.67      14.01      -2.76
C       4.64      13.99      -5.42
C       4.62      13.93       2.83
C       4.01      12.90      -0.42
O       5.80      13.77       6.04
O       3.50      13.90      -5.98
O       3.52      14.02       6.06
O       5.78      14.07      -6.00
O       7.21      13.95      -0.95
F       5.92      16.18       0.97
F       3.36      11.80      -0.90
