40

H       4.34      25.66       5.75
H       0.70      27.62       7.07
N      -0.02      20.47      11.00
N       0.54      20.57      12.24
N       1.44      21.52      12.17
N       1.00      24.48       7.64
N       0.98      23.66       8.66
N       2.16      25.18       7.72
H       6.81      21.33      13.61
H       5.45      25.04      15.41
H      -0.43      18.37       8.95
H      -2.55      19.96      12.38
H       0.20      21.49       9.12
H       3.82      25.28       9.09
N       4.90      24.72      12.33
N       3.97      24.65      11.40
N       4.92      23.51      12.96
H       3.80      21.68      12.83
C       3.50      26.32       5.91
C       2.43      26.21       6.81
C       1.63      27.33       6.58
C       6.62      22.19      14.25
C       5.77      23.28      14.05
C       5.93      24.09      15.17
C      -1.13      18.60       9.74
C      -1.06      19.56      10.76
C      -2.22      19.40      11.51
C       1.48      22.02      10.90
C       0.54      21.35      10.13
C       2.12      23.82       9.40
C       2.90      24.80       8.80
C       3.39      23.41      11.43
C       4.00      22.66      12.42
N       2.35      23.07      10.56
N       2.18      28.07       5.61
N       3.34      27.46       5.19
N       6.83      23.52      16.00
N       7.25      22.34      15.43
N      -2.95      18.41      10.98
N      -2.28      17.91       9.89
