20

C      14.81      -2.33       7.83
C      15.46      -3.50       7.86
C      16.06      -4.58       7.91
H      11.36      -0.50       8.21
H      15.18       1.55       7.97
C      16.71      -5.75       7.95
C      17.31      -6.83       7.95
H      20.14      -7.77       7.64
H      16.20      -9.55       7.98
N      11.97       1.52       8.41
N      13.17       2.18       8.32
C      12.18       0.22       8.20
C      14.14       1.26       8.06
N      19.40      -9.75       7.54
N      18.16     -10.32       7.65
C      13.56      -0.02       7.99
C      19.27      -8.43       7.68
C      17.26      -9.34       7.85
C      17.91      -8.09       7.87
C      14.22      -1.25       7.85
