16

C      24.78       9.38      14.04
O      24.58      10.56      14.46
O      25.77       8.63      14.36
C      20.94       6.90      10.39
H      20.89       9.34      11.36
H      24.86       6.96      13.05
C      23.98       7.48      12.67
O      21.10       5.69      10.04
O      19.99       7.67      10.03
C      23.77       8.80      13.09
Cl      23.55       5.20      11.39
C      22.63       9.48      12.60
C      23.11       6.82      11.80
C      21.76       8.82      11.73
Cl      22.22      11.11      12.98
C      21.97       7.49      11.32
