76

H       3.70       3.48       9.19
H       4.04       3.24       6.57
H      -5.55       8.93       5.02
H      -5.88       9.25       7.63
H      -1.11       9.82       5.54
H      -4.30       8.54       2.91
H      -3.75      10.44       1.38
H      -0.50      11.60       3.92
H      -1.19       9.11       8.86
H      -5.32      10.34       9.30
H      -4.61      12.19      10.74
H      -0.53      10.87      10.47
H      -1.33       1.91       3.58
H       2.63       0.26       3.51
H       3.41       2.04       5.00
H      -0.62       3.61       5.22
H      -0.75       2.69       8.61
H       2.44       3.81      11.29
H       1.84       1.90      12.77
H      -1.42       0.88      10.17
H      -0.90       5.01       9.25
H       0.66       5.70       5.29
H      -0.90       7.54       4.99
H      -2.46       6.85       8.95
C       1.62       3.96       8.69
C       2.97       3.75       8.44
C       3.14       3.61       7.04
C       1.89       3.74       6.43
C      -3.46       8.50       5.52
C      -4.81       8.69       5.77
C      -4.97       8.87       7.17
C      -3.73       8.79       7.78
C      -2.00      12.42       1.83
C      -2.10      12.70      11.68
C       0.13      -0.07       2.48
C       0.03      -0.01      12.30
C      -1.65       9.90       4.60
C      -2.79       9.09       4.37
C      -3.47       9.21       3.14
C      -3.17      10.26       2.28
C      -2.14      11.17       2.60
C      -1.33      10.92       3.71
C      -1.96       9.75       9.30
C      -3.31       9.58       8.94
C      -4.26      10.44       9.54
C      -3.87      11.50      10.34
C      -2.52      11.68      10.67
C      -1.58      10.76      10.17
C      -0.30       1.94       3.92
C       0.59       0.95       3.47
C       1.93       1.01       3.87
C       2.36       2.03       4.70
C       1.46       2.98       5.25
C       0.11       2.91       4.82
C      -0.22       2.57       9.56
C       0.93       3.35       9.82
C       1.60       3.17      11.05
C       1.27       2.11      11.87
C       0.22       1.24      11.52
C      -0.58       1.53      10.41
C      -0.89       5.55       8.30
C      -0.00       5.17       7.27
C      -0.03       5.94       6.09
C      -0.92       7.00       5.93
C      -1.80       7.37       6.96
C      -1.77       6.62       8.14
N       0.98       4.14       7.44
N      -2.80       8.38       6.77
O      -2.97      12.75       1.08
O      -0.92      13.12       2.01
O      -2.66      13.84      11.76
O       0.69      -1.20       2.38
O       0.98      -0.37      13.05
O      -1.09      -0.65      12.17
O      -1.18      12.27      12.47
O      -0.86       0.34       1.75
