13

H      -4.59       8.58      13.55
O      -1.76       7.50      13.44
C      -2.48       8.56      13.34
O      -2.12       5.52      15.85
O      -1.27       6.54      17.64
C      -2.91       7.74      16.37
O      -2.22       9.50      12.54
H      -3.48       7.98      17.29
C      -3.72       8.65      14.23
N      -3.80       7.56      15.21
H      -3.74       9.64      14.71
H      -2.23       8.59      16.22
C      -2.05       6.52      16.64
