48

H       2.75       1.81      15.23
H       4.64      -1.89       8.88
H       4.75       3.27      13.66
H       2.72      -3.32      10.42
O       3.21       3.43      13.19
O       0.93       2.73      12.68
O       1.86       2.08      14.78
O       6.49      -2.85      11.41
H       2.11      -1.91      15.42
H       7.59       1.83      11.66
O       4.18      -3.51      10.95
O       5.52      -2.20       9.30
C       4.73      -3.06      16.34
C       2.54       3.19       7.91
C       4.46       0.62      12.97
C       2.96      -0.72      11.11
O       4.18       1.33      15.43
O       6.48       0.74      14.81
O       5.59       2.82      14.00
O       0.88      -0.82       9.37
O       3.17      -1.37       8.65
O       1.85      -2.91      10.09
C       2.94       0.93      12.64
C       4.48      -1.02      11.45
C       2.62       2.40       9.11
C       4.71      -2.37      15.07
C       4.80       0.53      11.42
C       2.62      -0.62      12.65
O       0.11      -0.95      13.06
O       5.76       1.01       9.08
O       5.58       2.87      10.75
O       7.30       1.14      10.96
O       1.65      -2.94      13.25
O       1.58      -1.19      14.99
C       3.27       0.83      11.10
C       4.14      -0.92      12.98
C       2.86       1.70      10.07
C       4.53      -1.77      14.04
S       2.18       2.42      13.31
S       5.25      -2.53      10.80
S       5.26       1.36      14.44
S       2.12      -1.45       9.66
S       1.33      -1.56      13.46
S       5.90       1.51      10.42
O       3.68       3.49       7.42
O       3.56      -3.29      16.80
O       5.87      -3.33      16.83
O       1.38       3.49       7.48
