26

H      21.61       6.52      12.54
C      23.26       5.84      14.97
C      23.07       4.61      14.43
H      23.92       8.72      15.47
C      23.81       2.32      14.01
C      23.78       3.43      14.80
C      26.96       3.47      14.47
H      23.80      -0.50      13.05
N      22.18       8.54      12.76
N      22.91       9.24      13.67
H      24.42       3.47      15.69
H      22.46       4.53      13.52
N      25.78      -0.76      13.76
H      23.11       2.27      13.17
N      26.68       0.05      14.40
H      23.89       5.93      15.87
H      26.22       4.20      14.82
H      26.83       3.33      13.39
H      27.97       3.85      14.68
C      22.14       7.26      13.14
O      26.84       2.22      15.18
C      23.31       8.38      14.63
C      22.86       7.08      14.34
C      24.65      -0.05      13.55
C      26.10       1.25      14.59
C      24.78       1.25      14.08
