16

O       2.85      -1.26       7.71
H      -0.43      -3.28       3.44
O       2.85      -4.25       1.46
H      -0.43      -2.22       5.73
H       3.86      -2.22       5.73
H       3.86      -3.28       3.44
C       0.50      -3.04       3.96
C       0.50      -2.46       5.22
C       2.93      -2.46       5.22
C       2.93      -3.04       3.96
C       1.71      -3.33       3.32
C       1.71      -3.99       1.98
C       1.71      -2.17       5.86
C       1.71      -1.51       7.20
O       0.57      -4.25       1.46
O       0.57      -1.26       7.71
