26

C       2.40      19.35      20.61
H       1.36      21.38      19.17
C       1.02      19.24      20.85
H       4.31      18.35      20.63
H       2.83      20.30      20.30
C       0.50      18.01      21.28
C      -0.35      22.58      19.66
C       2.73      17.03      21.24
O      -3.30      23.99      21.26
H      -2.79      21.74      21.87
O       3.02      14.73      21.65
O      -2.03      24.90      19.63
C      -2.33      23.96      20.40
H       0.95      15.97      21.83
O       4.88      16.02      21.53
H      -1.34      19.73      22.11
H      -0.57      17.87      21.45
C      -1.88      21.64      21.28
C      -1.52      22.70      20.43
H      -0.09      23.39      18.98
C       0.46      21.45      19.78
C       3.24      18.26      20.80
C       3.63      15.87      21.48
C       1.35      16.92      21.48
C       0.13      20.41      20.67
C      -1.06      20.52      21.41
