12

C      24.86      13.86      13.87
O      16.46      13.05      14.66
O      26.84      13.03      13.04
O      16.51      14.67      13.04
O      26.89      14.65      14.66
C      23.63      13.86      13.87
C      19.72      13.84      13.88
C      21.06      13.84      13.87
C      22.29      13.85      13.87
C      17.06      13.85      13.86
C      26.30      13.85      13.85
C      18.49      13.84      13.88
