22

N       0.59       1.64      11.39
F       6.48       3.06      18.31
H       0.68       3.29      15.32
F       3.16      -0.21      12.75
H       2.07       4.75      16.69
F       3.12       6.45      18.02
C       5.73       4.17      18.35
C       2.17       0.66      12.52
F      -0.15       3.22      12.91
C       4.22       5.71      18.21
F       4.03       2.14      17.26
F       3.54       1.70      14.77
C       0.66       2.21      12.59
C       4.40       4.34      17.93
C       1.67       1.64      13.40
C       2.43       3.73      16.53
C       1.71       2.99      15.52
C       3.54       3.41      17.23
C       2.24       2.10      14.64
N       6.28       5.29      18.81
N       1.55       0.65      11.34
N       5.31       6.28      18.73
