24

O       9.69      13.82       2.16
O       8.90      12.56       0.44
O       9.34       6.96       4.49
O       9.26       8.27       6.35
H       7.67      10.55       1.54
H       7.70       8.59       3.10
H      11.03      12.22       3.65
H      10.65      10.05       7.16
H      13.26       9.97       7.97
H      14.75      10.12       5.68
H      12.96      10.29       3.63
C       9.30      12.72       1.64
C       9.33      11.52       2.52
C       8.41      10.49       2.34
C       8.43       9.40       3.21
C       9.39       9.29       4.22
C       9.34       8.08       5.09
C      10.37      10.30       4.35
C      10.30      11.42       3.52
C      11.56      10.08       6.58
C      12.89      10.04       6.95
C      13.67      10.13       5.76
C      12.80      10.23       4.70
N      11.50      10.18       5.20
