28

C      -2.90       7.32       8.60
C      -4.71       6.91      13.27
H      -4.13       2.63      14.17
C      -4.42       5.52      13.39
C      -4.00       4.93      12.19
C      -3.45       3.64      11.62
H      -4.65       8.71      12.11
C      -3.14       4.47      10.31
H      -5.09       7.44      14.14
H      -4.17       2.82      11.48
H      -2.56       3.25      12.13
H      -3.67       4.13       9.41
H      -2.07       4.56      10.07
H      -2.98       6.32       8.20
C      -2.97       9.18       9.79
C      -4.14       5.40      15.94
C      -4.33       4.83      14.66
N      -3.75       3.24      16.16
H      -3.09       9.96      10.54
H      -4.24       6.43      16.25
N      -2.33       8.30       7.87
C      -4.08       3.46      14.87
C      -3.33       7.82       9.84
N      -2.37       9.46       8.61
N      -3.78       4.44      16.82
C      -3.74       5.66      11.03
C      -3.87       7.05      10.95
C      -4.45       7.63      12.11
