18

S      18.11      13.38       4.92
S      18.85       9.64       3.19
H      20.83      12.72       3.20
C      15.67      12.87       6.10
C      21.31      10.15       2.01
C      16.86      11.05       4.77
C      20.08      11.95       3.35
C      16.75      12.35       5.30
C      20.20      10.68       2.82
C      18.87      12.09       4.06
C      18.09      10.92       4.07
N      15.92      10.07       4.88
H      16.19       9.11       4.74
H      15.15      10.27       5.52
O      14.68      12.07       6.35
O      15.78      14.08       6.52
O      21.21       8.93       1.64
O      22.26      10.96       1.75
