42

C       1.05       0.08      13.57
C       1.86       0.71      14.53
H       0.08      -4.13      12.90
H       3.56       2.64      18.14
H      -1.65      -0.23      12.16
H       2.48       1.80      24.36
N       1.12       4.68      23.81
N       2.75       0.04      17.84
N       2.75       0.69      16.74
H       1.16       4.95      21.71
N      -1.67      -3.42      11.92
N      -2.22      -2.20      11.66
N       1.55       3.67      24.65
N       2.34      -1.26      20.19
N       2.15       2.06      14.46
H       2.60      -2.03      16.43
N       3.35       4.27      20.25
H       1.87       0.40      22.24
H       0.60       0.69      12.78
H       1.50       2.65      13.95
H       2.48       2.44      15.35
H       1.69      -1.64      20.87
H       3.97       4.58      19.51
H       3.69       4.59      21.15
H       2.27      -1.64      19.25
C      -0.27      -1.90      12.81
C       2.10       2.70      23.89
C       1.42       4.32      22.55
C       2.05       3.06      22.53
C      -0.51      -3.26      12.60
H       1.25      -3.14      14.67
C      -1.39      -1.29      12.19
C       2.46       2.27      21.36
C       3.03       2.91      20.21
C       3.20       2.17      19.05
C       2.88       0.79      19.00
C       2.51       0.12      20.20
C       2.27       0.89      21.34
C       2.17      -1.45      15.61
C       1.42      -2.06      14.63
C       2.33      -0.05      15.63
C       0.76      -1.29      13.64
