34

H       9.75       5.63       1.01
H       8.61       5.53      -1.03
H       9.95       6.43      -1.74
H       6.37       8.36      -0.29
H       6.50       6.59      -0.34
H       7.21       8.30       1.89
H       8.16       9.81      -1.10
H      10.55       9.22       0.52
H      10.92       6.79       0.37
H       7.83       6.11       3.01
H      10.89       8.56      -1.85
H       9.01       9.89       1.06
C       7.31       7.59      -5.19
C       9.85       6.57       0.45
C       9.18       7.72       1.25
C      10.56       7.69       5.11
C       9.46       9.05       0.51
C       9.19       6.46      -0.94
C       7.06       7.52      -0.16
C       7.64       7.49       1.27
C      10.19       7.79       3.72
C       8.91       9.02      -0.94
C       8.21       7.64      -1.19
C       7.29       6.22       2.04
C      10.03       9.28      -1.92
C       9.74       7.77       2.59
C       7.75       7.59      -2.56
C       7.52       7.56      -3.76
O       6.48       5.39       1.67
O      10.07      10.21      -2.70
O       8.33       7.83      -5.90
O       6.12       7.39      -5.60
O      11.79       7.80       5.43
O       9.59       7.48       5.90
