46

C       3.76      11.40       8.16
C       3.05       9.05       8.16
C       3.41      10.23      10.32
H       1.79      14.78       5.57
H       5.03       5.68       5.57
C       3.52      11.44      11.05
C       3.30       9.02      11.05
H       3.74      13.38       6.30
H       3.08       7.07       6.30
C       3.54      11.43      12.43
C       3.28       9.03      12.43
H       1.18      11.28       9.06
H       5.64       9.17       9.06
C       3.41      10.23      13.15
C       3.41      10.23      14.63
H      -0.76      12.67       8.31
N       3.41      10.23       8.94
H       7.57       7.79       8.31
H       4.47      12.02       8.74
H       2.34       8.44       8.74
O      -1.87      14.40       7.06
O       8.69       6.06       7.06
H       4.33      11.08       7.27
H       2.49       9.38       7.27
O      -0.56      15.52       5.58
O       7.38       4.94       5.58
H       3.57      12.39      10.53
H       3.25       8.06      10.53
O       3.73      11.32      15.22
O       3.09       9.13      15.22
H       3.62      12.36      12.99
H       3.20       8.09      12.99
C      -0.76      14.63       6.48
C       7.58       5.82       6.48
C       0.40      13.80       6.89
C       6.42       6.66       6.89
C       1.67      14.00       6.33
C       5.15       6.45       6.33
C       2.75      13.23       6.74
C       4.07       7.23       6.74
C       2.58      12.24       7.73
C       4.24       8.21       7.73
C       1.31      12.04       8.29
C       5.50       8.41       8.29
C       0.23      12.81       7.87
C       6.59       7.64       7.87
