30

C      26.05      20.21      14.78
C      26.13      20.16      13.35
C      23.02      21.95      12.32
C      24.02      21.38      13.12
C      25.16      20.72      12.56
C      21.80      22.66      14.31
C      22.79      22.09      15.13
C      22.71      22.13      16.56
C      26.91      19.71      16.99
C      24.92      20.86      15.36
C      21.93      22.59      12.92
C      23.92      21.44      14.54
O      28.94      18.54      17.25
O      27.81      19.19      19.11
H      25.75      20.38      18.67
H      27.90      19.14      15.16
H      23.09      21.92      11.24
H      20.94      23.16      14.75
C      27.97      19.10      17.85
O      19.90      23.76      12.65
O      21.03      23.10      10.79
C      20.87      23.20      12.06
F      21.65      22.75      17.13
F      23.57      21.64      18.69
F      25.27      20.66      11.21
F      27.19      19.55      12.78
C      25.82      20.34      17.59
C      24.82      20.92      16.79
C      23.68      21.58      17.35
C      27.04      19.64      15.60
