40

H      10.85      18.96       7.71
H       6.59      18.25       7.48
H      10.56      18.24      12.11
H       6.31      18.95      11.86
C      11.36      19.17       5.11
C       6.36      18.07       4.84
C      10.78      18.05      14.75
C       5.78      19.15      14.45
O       7.05      18.40      16.64
O       9.29      18.83      16.74
O      10.05      18.43       2.91
O       7.82      18.94       2.87
O      12.26      18.16       5.00
O      11.66      20.31       4.84
O       5.46      19.07       4.67
O       6.10      16.93       4.52
O      11.68      19.06      14.93
O      11.05      16.91      15.08
O       4.88      18.13      14.56
O       5.47      20.29      14.72
H      11.81      17.31       5.17
H       5.88      19.93       4.87
H      11.25      19.91      14.71
H       5.33      17.28      14.41
C       8.20      18.61      16.13
C       8.92      18.67       3.46
C       8.86      18.63       4.95
C      10.02      18.82       5.73
C       9.95      18.80       7.12
C       8.71      18.61       7.77
C       7.55      18.42       6.99
C       7.63      18.42       5.60
C       8.63      18.60       9.18
C       8.54      18.59      10.40
C       8.45      18.59      11.81
C       9.60      18.40      12.60
C       9.52      18.40      13.99
C       8.28      18.60      14.63
C       7.13      18.79      13.85
C       7.21      18.78      12.46
