10

O       3.17      17.53       0.83
O      -0.45      10.46       0.89
O       4.36      16.59      -0.89
C       3.42      16.62      -0.03
C      -0.71      11.37       0.03
C       0.18      12.51       0.03
C       2.52      15.49      -0.03
C       0.93      13.47       0.01
C       1.76      14.53      -0.01
O      -1.65      11.39      -0.83
