30

H       3.55      -4.12       8.80
H      -3.16      -5.37      11.12
H      -4.37      -6.70      12.84
H      -0.70      -8.49      14.10
H       3.64      -7.01      12.00
H       4.83      -5.60      10.37
O      -4.52      -8.57      14.38
O      -2.63      -9.03      15.40
H       1.09      -4.02       8.93
C       1.69      -8.01      13.32
C       1.64      -4.68       9.59
C      -1.30      -4.72       9.56
C      -2.61      -6.05      11.76
N      -3.29      -8.48      14.50
C      -3.29      -6.78      12.70
C      -2.56      -7.67      13.52
O      -1.09      -3.48       9.27
O      -2.17      -5.44       8.99
C      -1.20      -7.81      13.43
C      -0.46      -7.04      12.47
C      -1.20      -6.16      11.59
C       0.95      -7.14      12.35
C       1.65      -6.35      11.42
C       0.91      -5.46      10.54
C      -0.50      -5.42      10.61
O       1.38      -7.86      14.54
C       3.08      -6.36      11.33
C       3.74      -5.57      10.42
C       3.01      -4.73       9.53
O       2.60      -8.81      12.89
