16

C      22.35       9.99       2.64
C      24.78       8.21       5.89
C      23.19       9.37       3.76
C      23.66       7.52       5.34
C      24.32      10.05       4.30
O      25.29       6.45       7.44
C      22.88       8.09       4.30
O      26.61       8.26       7.44
C      25.10       9.48       5.34
Br      23.11       5.81       5.96
Br      24.87      11.77       3.69
Br      21.41       7.05       3.69
Br      26.57      10.52       5.96
O      22.69      11.13       2.21
O      21.36       9.32       2.21
C      25.62       7.59       7.01
