18

O       2.80       9.55      10.49
C       4.36      10.80      15.13
C       4.36       9.99      12.84
O       0.92      11.31      16.28
H       4.91      11.12      16.02
H       4.91       9.67      11.95
C       2.96      10.78      15.14
O       0.92       9.48      11.69
H       1.18      10.40      13.99
C       2.96      10.01      12.83
C       6.55      10.40      13.99
C       2.27      10.40      13.99
C       5.05      10.40      13.99
C       2.19      11.14      16.36
O       7.13      11.28      14.69
C       2.19       9.65      11.61
O       2.80      11.24      17.48
O       7.13       9.51      13.28
