20

C      10.76       5.40      12.96
H      13.63       7.91      13.05
N      11.97       1.96       9.29
N      11.80       7.38      13.82
H      13.11       5.09       9.67
H      10.71       0.90      10.55
C      12.58       4.18       9.93
C      11.23       1.85      10.41
H      10.57       2.72      12.25
H      13.80       5.94      11.53
H       9.96       6.72      14.50
H      13.21       3.13       8.13
C      11.14       2.87      11.34
H       9.89       4.75      12.95
C      12.91       6.08      12.14
C      12.85       7.16      13.00
C      11.84       4.07      11.12
C      11.83       5.18      12.08
C      10.78       6.50      13.81
C      12.63       3.10       9.05
