18

C       0.64      13.96       9.45
H      -0.23      15.77       8.68
C      -1.12      15.19      10.55
O      -1.08      12.36      13.63
C       1.58      13.88       8.29
C       0.66      13.04      10.50
O       0.66      11.27      12.66
C      -1.94      16.44      10.60
C      -1.16      14.24      11.58
C      -0.24      15.04       9.48
O      -1.42      17.44      10.03
O       1.27      14.42       7.21
H      -1.85      14.33      12.41
O       2.71      13.26       8.48
C      -0.20      12.18      12.68
C      -0.25      13.17      11.56
O      -3.07      16.46      11.21
H       1.37      12.22      10.51
