25

N       5.28       9.29       1.88
N       4.85       8.34       1.04
N       6.89       7.68       1.71
N       4.38       6.30      -0.57
N       8.73      11.04       5.18
C       4.09       5.36      -1.48
C       5.00       4.36      -1.83
C       6.25       4.34      -1.22
C       6.57       5.32      -0.28
C       5.60       6.29       0.02
C       5.82       7.40       0.94
C       6.51       8.86       2.27
C       7.65      11.58       4.57
H       3.09       5.42      -1.93
H       4.72       3.61      -2.58
H       6.99       3.58      -1.48
H       7.54       5.37       0.21
C       7.30       9.62       3.22
C       6.91      10.91       3.61
C       8.45       9.07       3.82
H       6.02      11.36       3.19
H       7.38      12.58       4.89
C       9.12       9.80       4.79
H       9.98       9.39       5.30
H       8.79       8.08       3.53
