94

H      14.06       9.80       9.03
H      23.50       8.98       9.03
H      23.50       8.98      26.07
H      14.06       9.80      26.07
H      14.85      12.04      12.61
H      22.71       6.73      12.61
H      22.71       6.73      22.49
H      14.85      12.04      22.49
H      15.47       7.76      12.54
H      22.08      11.01      12.54
H      22.08      11.01      22.55
H      15.47       7.76      22.55
H      14.57      11.42      17.55
H      22.98       7.36      17.55
H      17.89       9.75      15.39
H      19.67       9.03      15.39
H      19.67       9.03      19.71
H      17.89       9.75      19.71
H      15.98       9.02      14.42
H      21.57       9.76      14.42
H      21.57       9.76      20.67
H      15.98       9.02      20.67
C      14.74       7.35       9.99
C      22.82      11.43       9.99
C      22.82      11.43      25.11
C      14.74       7.35      25.11
C      14.10      12.32      10.05
C      23.45       6.46      10.05
C      23.45       6.46      25.05
C      14.10      12.32      25.05
C      14.43      11.04      10.75
C      23.12       7.74      10.75
C      23.12       7.74      24.35
C      14.43      11.04      24.35
C      14.78       8.65      10.72
C      22.78      10.13      10.72
C      22.78      10.13      24.38
C      14.78       8.65      24.38
C      14.39       9.83      10.06
C      23.17       8.95      10.06
C      23.17       8.95      25.03
C      14.39       9.83      25.04
C      14.83      11.09      12.09
C      22.73       7.69      12.09
C      22.73       7.69      23.01
C      14.83      11.09      23.01
C      15.19       9.91      12.75
C      22.37       8.87      12.75
C      22.37       8.87      22.35
C      15.19       9.91      22.35
C      15.18       8.69      12.05
C      22.38      10.08      12.05
C      22.38      10.08      23.04
C      15.18       8.69      23.04
C      18.09       9.67      17.55
C      19.46       9.10      17.55
C      15.53      10.91      17.55
C      22.02       7.87      17.55
C      17.41       9.96      16.35
C      20.14       8.82      16.35
C      20.14       8.82      18.75
C      17.41       9.96      18.75
C      16.15      10.56      16.35
C      21.41       8.22      16.35
C      21.41       8.22      18.75
C      16.15      10.56      18.75
C      15.47      10.89      15.05
C      22.08       7.89      15.05
C      22.08       7.89      20.05
C      15.47      10.89      20.05
N      15.61       9.90      14.09
N      21.94       8.87      14.09
N      21.94       8.87      21.01
N      15.61       9.90      21.01
O      15.31       6.34      10.53
O      22.24      12.43      10.53
O      22.24      12.44      24.57
O      15.31       6.34      24.57
O      14.43      13.39      10.66
O      23.13       5.38      10.66
O      23.13       5.38      24.44
O      14.43      13.39      24.44
O      13.55      12.24       8.90
O      24.01       6.54       8.90
O      24.01       6.54      26.20
O      13.55      12.24      26.20
O      14.11       7.35       8.87
O      23.44      11.43       8.87
O      23.44      11.43      26.23
O      14.11       7.35      26.23
O      14.87      11.96      14.88
O      22.68       6.82      14.88
O      22.68       6.82      20.22
O      14.87      11.96      20.22
