23

N       7.11      22.08       3.38
H       7.10      23.82       4.49
C       9.00      17.98       8.08
O      10.15      18.75      11.44
C       9.30      18.70       9.24
C       7.23      22.74       4.55
H       7.10      20.25       2.43
C       9.92      18.01      10.43
H       7.64      22.71       6.63
O      10.15      16.77      10.30
C       7.23      20.74       3.39
C       7.53      22.10       5.74
H       7.64      18.95       4.46
H       8.27      21.78       8.24
C       7.53      20.03       4.55
C       7.74      20.71       5.76
H       8.27      18.03       6.07
H       9.23      20.62      10.20
C       8.21      20.00       6.98
C       8.47      20.71       8.17
H       9.23      16.91       8.05
C       8.47      18.62       6.97
C       9.00      20.07       9.28
