13

N       5.97       5.56       5.05
O       9.79       5.98       2.84
C       5.49       6.54       4.29
N       6.45       7.09       3.51
C       7.31       5.46       4.72
O       8.91       8.02       2.59
H       6.34       7.80       2.75
C       7.63       6.42       3.75
C       8.18       4.51       5.45
O       9.41       4.86       5.67
H       4.46       6.87       4.28
C       8.86       6.83       3.02
O       7.70       3.44       5.90
