18

O      19.09      14.95      19.33
C      23.34      12.72      19.12
C      21.97      13.35      20.89
O      25.41      11.66      18.92
O      24.30      12.33      17.04
O      18.91      14.86      23.65
S      22.00      13.47      18.29
S      21.20      13.68      22.40
C      24.43      12.20      18.31
O      24.10      12.20      21.37
C      23.19      12.73      20.51
C      18.77      14.97      22.38
C      19.86      14.43      21.57
C      21.22      13.80      19.80
O      17.80      15.51      21.76
C      20.01      14.42      20.18
H      23.78      12.32      22.28
H      19.41      14.82      18.41
