26

O       6.44       4.35      15.22
O       6.54       4.34      17.81
O       1.18       9.30      18.11
O       0.93       9.19      15.43
C       4.61       5.77      18.02
C       3.63       6.60      17.35
C       5.55       5.07      17.26
C       2.81       7.51      18.07
C       1.94       8.37      17.43
C       4.45       5.75      15.17
H       2.89       7.55      19.15
C       5.48       5.06      15.84
C       3.53       6.57      15.92
C       2.59       7.42      15.31
C       1.81       8.32      16.02
H       2.49       7.39      14.22
H       6.27       4.54      14.23
H       6.46       4.55      18.80
H       1.44       9.27      19.05
H       1.02       9.10      14.47
C       4.40       5.62      13.69
O       5.48       5.21      13.11
O       3.34       5.88      13.04
C       4.65       5.61      19.49
O       3.58       5.78      20.16
O       5.78       5.27      20.02
