32

C       5.57       7.57       8.23
H       5.37       5.41       7.91
C       5.65       8.56       9.39
H       4.67       5.99       9.44
C       6.78       7.71       7.28
H       6.43       5.84       9.27
C       6.93       9.07       6.58
H       4.64       7.77       7.67
C       6.25      12.91       6.19
H       6.60       8.44       9.94
C       5.51      11.72       6.10
H       4.83       8.40      10.10
C       5.85      10.67       5.07
H       5.59       9.60       9.05
C       5.87      13.88       7.12
H       7.69       7.53       7.87
C       4.11      12.56       7.86
H       6.74       6.92       6.51
C       4.42      11.55       6.95
H       6.96       9.87       7.34
H       7.12      13.07       5.56
H       5.13      10.70       4.25
C       8.29       9.09       5.86
H       6.84      10.87       4.63
N       5.87       9.28       5.60
H       6.40      14.82       7.21
N       4.82      13.70       7.94
H       3.27      12.47       8.55
O       8.35       8.68       4.65
H       3.79      10.66       6.93
O       9.29       9.48       6.52
C       5.50       6.12       8.74
