63

H      15.17       8.50       7.59
H      15.51       8.36       4.84
H      11.58       9.69       5.74
H      14.61       7.58       2.95
H      14.30       7.87       0.51
H      11.47      11.03       1.24
H      11.81      10.77       3.67
H      12.50       7.53      -1.12
H      12.13      10.10      -4.57
H      12.91      11.77      -0.68
H      14.25      13.03      -1.74
H      14.83      15.18      -2.77
H      12.41      14.18      -6.20
H      11.77      12.07      -5.17
H      15.94      16.53      -4.45
H      15.52      18.83      -5.95
H      12.08      16.43      -6.22
H      12.31       8.52      -5.70
H      11.71       6.66      -7.10
H      11.00       4.21      -3.62
H      11.51       6.12      -2.19
H      11.86       4.93      -8.19
H      10.76       2.60      -9.16
H       9.84       2.87      -5.06
C      14.48       8.73       6.79
C      14.66       8.64       5.44
C      12.61       9.39       5.88
C      13.23       9.16       3.47
C      13.92       8.33       2.58
C      13.74       8.49       1.21
C      12.86       9.46       0.70
C      12.17      10.28       1.61
C      12.35      10.13       2.98
N      13.20       9.20       7.05
N      13.47       9.06       4.86
N      13.94      16.08      -5.15
N      13.61      17.91      -6.35
N      11.00       4.21      -6.33
N      10.10       2.34      -7.12
C      12.67       9.63      -0.75
C      12.48       8.52      -1.58
C      12.25       8.67      -2.95
C      12.30       9.96      -3.50
C      12.61      11.08      -2.71
C      12.72      10.91      -1.32
C      12.92      12.39      -3.34
C      13.81      13.29      -2.71
C      14.16      14.50      -3.29
C      13.64      14.83      -4.55
C      12.79      13.94      -5.21
C      12.42      12.74      -4.61
C      15.09      16.86      -5.03
C      14.87      17.99      -5.78
C      13.08      16.76      -5.96
C      11.97       7.49      -3.81
C      12.04       7.58      -5.21
C      11.73       6.51      -6.03
C      11.34       5.28      -5.47
C      11.29       5.15      -4.08
C      11.59       6.25      -3.27
C      11.31       4.15      -7.69
C      10.75       2.99      -8.16
C      10.27       3.09      -6.04
