13

C       2.52       9.35      11.17
C       3.02       8.49      13.39
O       0.21       9.03      10.62
O       1.42      10.58       9.49
O       1.59       6.64      13.93
O       3.54       6.91      15.06
H       2.88       9.36      14.04
H       4.07       8.44      13.05
H       3.21       8.78      10.51
H       3.01      10.28      11.50
C       1.26       9.67      10.37
O       2.13       8.55      12.28
C       2.67       7.23      14.18
