54

H       2.49      22.14      12.82
H       2.48      17.84      12.88
H       2.50      19.94       9.13
H       1.40      25.67      10.28
H       1.32      23.55      11.55
H       3.81      21.68       8.56
H       3.68      21.75      14.66
H       1.21      18.26      17.17
H       1.18      18.24      14.69
H       1.21      16.49      11.67
H       3.58      15.95       7.36
H       3.69      18.12       8.54
H       4.46      24.70       6.80
H       4.67      23.05       6.86
H       4.27      21.74      18.16
H       4.50      22.53      16.71
H       0.72      13.34      10.04
H       0.31      14.35      11.37
C       2.47      19.99      18.81
C       2.29      13.75       8.03
C       2.66      26.17       7.96
C       2.45      19.99      13.02
C       2.48      21.18      12.29
C       2.53      21.19      10.89
C       2.52      19.95      10.22
C       2.48      18.74      10.92
C       2.45      18.78      12.32
C       1.95      24.79       9.92
C       1.91      23.60      10.64
C       2.56      22.46      10.14
C       3.25      22.55       8.93
C       3.32      23.75       8.20
C       2.65      24.88       8.71
C       3.11      21.00      15.21
C       3.15      21.02      16.61
C       2.47      20.00      17.31
C       1.77      19.01      16.61
C       1.76      19.00      15.22
C       2.43      20.00      14.50
C       1.76      16.37      10.73
C       1.66      15.13      10.06
C       2.33      14.99       8.81
C       3.05      16.09       8.30
C       3.10      17.30       8.95
C       2.45      17.45      10.20
N       4.01      23.81       6.99
N       3.83      22.03      17.29
N       0.98      14.10      10.66
O       3.62      26.98       8.20
O       3.42      19.37      19.39
O       3.20      13.56       7.15
O       1.72      26.39       7.12
O       1.35      12.90       8.25
O       1.53      20.60      19.42
