19

C       5.10       4.32       7.92
H       4.56      -1.57       7.57
H       7.47       0.54       8.10
H       2.29      -1.00       7.46
H       2.89       0.11       6.20
H       2.66       0.69       7.87
C       2.98      -0.17       7.27
C       5.06       2.88       7.86
N       4.31      -0.58       7.63
O       7.90      -4.88       8.13
O       5.65      -4.69       7.79
O       6.27       4.82       7.84
O       4.00       4.95       8.05
C       6.83      -4.21       7.95
C       5.37       0.27       7.79
C       6.67      -0.19       7.96
C       6.91      -1.56       7.97
C       5.13       1.66       7.82
C       6.91      -2.79       7.94
