34

C       7.96       4.92      31.79
C       9.14       4.18      31.70
C       9.10       2.80      31.74
C       7.87       2.11      31.86
C       6.66       2.86      31.93
C       6.74       4.25      31.90
C       7.91       0.70      31.91
C       8.03      -0.53      31.96
C       8.08      -1.94      31.99
C       9.30      -2.67      32.05
C       9.24      -4.07      32.05
C       8.03      -4.75      31.98
C       6.83      -4.03      31.93
C       6.85      -2.64      31.94
C       5.27       2.29      32.03
C      10.69      -2.09      32.12
H      10.10       4.70      31.60
H      10.03       2.22      31.68
H       5.81       4.82      31.96
H      10.18      -4.62      32.10
O       9.11       6.98      31.59
O       6.88       7.02      31.97
H       5.92      -2.07      31.90
H       5.88      -4.56      31.88
O       6.88      -6.81      31.71
O       9.11      -6.85      32.15
H       6.01       0.50      32.13
H       9.94      -0.30      32.09
C       7.98       6.42      31.78
C       8.01      -6.25      31.95
O       5.13       0.94      32.14
O       4.28       3.00      32.02
O      10.82      -0.74      32.13
O      11.68      -2.79      32.17
