69

H      19.11      16.36      23.72
H      22.75      17.00      21.46
H      29.27       8.85      23.72
H      25.58       7.95      21.64
H      19.59       7.88      28.20
H      21.79       8.88      31.80
H      29.40      15.96      29.34
H      25.71      16.97      31.37
H      23.59      14.96      22.44
H      20.46      15.29      25.38
H      21.66      13.75      26.83
H      24.79      13.42      23.89
H      20.29       9.98      27.31
H      23.37      10.02      30.33
H      24.65      11.62      29.01
H      21.61      11.53      25.96
H      27.97      13.54      29.10
H      24.81      16.47      28.97
H      23.55      15.05      27.43
H      26.68      12.10      27.59
H      27.99      11.30      23.94
H      24.63       8.60      23.95
H      23.42      10.11      25.43
H      26.75      12.83      25.40
C      19.90      16.67      23.04
C      21.23      16.23      22.94
C      21.75      16.99      21.88
C      28.48       8.48      23.07
C      27.13       8.85      23.01
C      26.59       8.00      22.03
C      20.01       7.97      29.20
C      21.00       8.85      29.69
C      21.15       8.47      31.03
C      28.62      16.35      29.98
C      27.25      16.04      30.01
C      26.73      16.89      31.00
C      24.16      12.56      26.45
C      23.16      14.71      23.41
C      21.92      15.26      23.79
C      21.40      14.88      25.04
C      22.10      14.00      25.87
C      23.34      13.46      25.49
C      23.84      13.83      24.24
C      21.26      10.32      27.69
C      21.73       9.86      28.93
C      22.96      10.36      29.38
C      23.70      11.27      28.62
C      23.25      11.70      27.36
C      22.01      11.21      26.92
C      27.00      13.88      28.73
C      26.50      15.13      29.15
C      25.23      15.50      28.67
C      24.52      14.70      27.79
C      25.02      13.46      27.35
C      26.27      13.07      27.86
C      26.99      11.02      24.28
C      26.42       9.82      23.84
C      25.11       9.53      24.26
C      24.42      10.39      25.11
C      24.99      11.59      25.57
C      26.28      11.89      25.11
N      20.81      17.82      21.39
N      19.65      17.62      22.11
N      27.55       7.18      21.55
N      28.72       7.47      22.20
N      20.31       7.44      31.32
N      19.61       7.14      30.18
N      27.71      17.66      31.52
N      28.89      17.33      30.88
