20

H       0.98      12.40      10.65
H       0.98      10.68      12.44
H       6.26      10.03      11.83
H       6.26      11.31      13.07
H       6.25      13.07      11.26
H       6.25      11.79      10.02
O       2.01      13.99       8.98
O       4.28      14.00       9.07
O       4.29       9.08      14.01
O       2.02       9.10      14.12
C       3.14      13.58       9.45
C       3.15       9.50      13.64
C       3.13      10.54      12.58
C       3.12      12.54      10.51
C       4.31      11.06      12.05
C       1.92      12.03      11.04
C       4.30      12.03      11.04
C       1.92      11.06      12.05
C       5.82      11.00      12.11
C       5.82      12.10      10.98
