19

C      16.85      11.07       4.80
C      20.05      11.98       3.34
C      16.75      12.35       5.33
C      20.17      10.71       2.81
C      18.85      12.13       4.06
C      18.07      10.95       4.08
C      15.87       9.95       4.96
H      20.81      12.75       3.19
S      18.10      13.39       4.95
S      18.82       9.68       3.20
H      15.71       9.71       6.02
H      16.21       9.05       4.44
H      14.88      10.24       4.56
C      15.66      12.91       6.14
C      21.27      10.18       2.00
O      14.69      12.13       6.42
O      15.79      14.14       6.50
O      21.16       8.95       1.63
O      22.23      10.98       1.74
