20

N      -0.41       1.67      27.91
N      -7.50       1.55      27.92
C      -1.10       0.94      27.02
C      -2.49       0.93      26.98
C      -3.22       1.68      27.92
C      -2.48       2.46      28.82
C      -1.09       2.43      28.78
C      -4.69       1.63      27.94
C      -5.39       0.51      27.47
C      -6.78       0.51      27.47
H      -0.51       0.37      26.31
H      -2.99       0.34      26.22
H      -2.98       3.07      29.57
H      -0.50       3.04      29.46
C      -5.46       2.71      28.42
H      -4.86      -0.38      27.13
C      -6.85       2.62      28.39
H      -4.99       3.62      28.78
H      -7.36      -0.34      27.11
H      -7.49       3.44      28.74
