18

C      13.01      11.22      10.13
C      13.01       9.98      10.92
C      12.94       8.53      12.71
C      13.01       7.63      11.63
C      12.92       6.17      13.42
N      13.01       5.20      11.16
H      13.40       5.33      10.23
H      13.13       4.29      11.60
O      12.92      12.32      10.77
O      13.09      11.07       8.86
O      12.89       5.10      15.48
C      12.94       9.88      12.30
S      12.85       7.72      14.23
H      12.88      10.75      12.95
S      13.08       8.45      10.11
O      12.96       3.83      13.57
C      13.00       6.26      12.02
C      12.92       4.96      14.21
