26

Br       8.05       4.42       4.96
Br       1.49       1.13      10.76
H       6.26       4.42       7.09
H       3.22       1.16       8.57
H       4.04       5.53      10.71
O       8.22       2.11       3.20
H       5.54      -0.01       5.04
H       4.22       0.61       7.01
O       1.39       3.39      12.58
O       2.58       5.32      12.51
H       5.29       4.95       8.67
O       7.02       0.19       3.25
C       7.35       1.34       3.71
C       2.26       4.17      12.06
C       6.64       1.82       4.93
C       2.94       3.70      10.82
C       6.82       3.08       5.54
C       6.08       3.44       6.67
C       2.72       2.46      10.17
C       3.43       2.13       9.02
C       3.88       4.57      10.23
C       4.58       4.23       9.08
C       5.68       0.97       5.51
C       4.94       1.33       6.62
C       5.13       2.58       7.24
C       4.37       2.99       8.45
