56

C      -5.78       9.27       8.04
C      -5.65       9.85       6.76
C      -6.68      10.59       6.20
C      -7.87      10.78       6.91
C      -8.02      10.22       8.18
C      -6.97       9.48       8.74
C      -0.87       7.33      10.38
C      -0.49       6.00      10.63
C       0.77       5.70      11.14
C       1.69       6.72      11.39
C       1.33       8.05      11.12
C       0.07       8.35      10.62
H      -4.88       9.71      10.45
H      -4.49      10.45      12.37
H      -8.03       6.43       6.69
H      -9.27       4.72       5.37
H      -4.31       5.03       5.03
H      -2.00       6.50       8.06
N      -4.28       6.77       6.96
H      -1.30       7.57      12.94
N      -3.28       9.85      13.99
H      -4.72       9.71       6.21
H      -6.56      11.03       5.21
N      -2.26       8.96      14.20
H      -8.68      11.37       6.48
H      -8.94      10.36       8.75
H      -7.10       9.03       9.73
H      -1.22       5.20      10.44
H       1.04       4.66      11.34
H       2.68       6.48      11.79
H       2.06       8.85      11.29
H      -0.21       9.39      10.43
N      -8.80       1.05       2.47
H     -10.36       2.95       4.56
N      -5.55       6.72       6.89
N      -9.93       1.44       3.15
F      -5.39       3.19       3.57
H      -6.80       1.70       2.42
C      -7.78       1.85       2.84
C      -8.23       2.80       3.79
C      -3.69       9.80      12.72
C      -2.92       8.85      12.02
C      -7.50       3.86       4.47
C      -2.05       8.34      13.02
C      -6.10       4.03       4.39
C      -5.40       4.97       5.10
C      -6.11       5.83       5.97
C      -7.51       5.74       6.02
C      -9.60       2.48       3.94
C      -8.18       4.78       5.29
C      -4.63       8.58       8.67
C      -4.25       8.98       9.95
C      -3.85       7.57       8.04
C      -3.10       8.49      10.61
C      -2.21       7.68       9.87
C      -2.62       7.21       8.61
