71

O      13.39       4.44      20.35
O      11.33       4.62      21.15
O      10.21      14.38      16.73
O       9.37      20.66      17.47
O       7.57      19.93      18.54
O      12.41      13.26      18.98
O      17.44      16.85      20.63
O      16.07      17.19      22.37
H       9.67      11.32      11.06
H      10.92      11.51      13.21
H       7.31      10.58      15.38
H       6.06      10.46      13.21
H      11.09      12.69      15.16
H      11.83      11.11      15.58
H      10.84      11.30      19.25
H       9.95      10.50      17.91
H      10.10       9.11      19.59
H      10.24       6.93      20.62
H      14.15       6.31      18.82
H      13.98       8.53      17.76
H       8.98      12.83      17.38
H      10.02      13.57      18.64
H       8.39      15.08      18.67
H       7.72      17.44      19.11
H      10.30      18.76      15.91
H      10.96      16.42      15.47
H      13.26      12.16      17.42
H      12.60      13.78      16.97
H      12.27      14.34      21.27
H      14.01      15.83      22.33
H      16.49      15.38      18.87
H      14.79      13.90      17.80
H      10.57       5.23      21.16
H      10.19      20.32      17.06
C       7.01      10.84      10.72
C       7.78      10.89      12.00
C       9.16      11.17      12.01
C       9.86      11.28      13.22
C       9.18      11.08      14.42
C       7.81      10.75      14.42
C       7.12      10.68      13.22
C      11.02      11.81      15.82
C      11.09      12.24      17.30
C      10.88      11.02      18.19
C      12.02       8.95      18.59
C      10.98       8.50      19.40
C      11.08       7.24      19.98
C      12.20       6.43      19.77
C      13.26       6.91      18.97
C      13.17       8.16      18.37
C      12.36       5.12      20.42
C       9.97      13.26      17.59
C       9.75      15.61      17.06
C       8.83      15.88      18.08
C       8.45      17.20      18.33
C       9.00      18.26      17.59
C       9.90      17.97      16.55
C      10.27      16.66      16.28
C       8.58      19.64      17.90
C      12.45      12.88      17.60
C      13.42      14.04      19.48
C      13.21      14.57      20.76
C      14.16      15.39      21.34
C      15.35      15.69      20.66
C      15.57      15.14      19.39
C      14.61      14.31      18.79
C      16.35      16.63      21.26
O       5.73      10.96      10.81
O       7.61      10.71       9.61
O       9.75      11.17      15.67
O      12.01      10.16      17.96
