58

C      20.85      16.21       7.23
C      15.73      17.22       9.48
C      19.78      15.25       5.24
H      19.84      14.75       4.28
C      16.78      17.91      11.57
H      16.72      18.28      12.59
H      13.63      17.30       9.14
H      22.96      16.38       7.48
C      20.91      15.53       5.95
C      15.65      17.64      10.86
C      19.56      16.49       7.78
H      17.41      15.06       3.97
C      17.02      17.00       8.90
H      19.13      18.47      12.68
O      24.34      18.02       7.89
H      14.66      17.78      11.29
O      20.54      18.92      13.84
H      24.03      17.34      13.08
H      25.01      17.22      11.59
H      24.73      18.79      12.37
O      13.78      15.05       2.74
O      22.75      18.90      13.98
H      12.29      18.18       4.34
H      13.22      17.41       3.05
H      11.90      16.54       3.84
H      21.89      15.24       5.57
O      12.20      18.18       8.03
O      25.38      18.53       9.82
O      11.21      17.30       6.21
C      18.39      16.22       7.03
C      18.19      17.25       9.65
O      15.99      15.46       2.51
C      24.27      17.82      12.13
C      12.73      17.24       4.01
C      14.67      16.84       7.30
C      21.94      17.27       9.18
C      19.48      17.05       9.08
C      17.11      16.53       7.56
C      24.35      18.08       9.17
C      12.25      17.54       6.91
C      14.89      15.49       3.18
C      21.66      18.69      13.29
C      20.54      17.92      11.14
C      20.66      17.40       9.81
C      15.94      16.44       6.75
C      21.75      18.17      11.90
C      16.05      15.97       5.40
C      14.90      16.07       4.57
C      13.57      17.03       6.40
C      23.10      17.72       9.90
C      14.60      17.10       8.69
C      21.99      16.61       7.91
C      19.23      18.08      11.68
C      17.32      15.49       4.96
C      23.01      17.95      11.30
C      13.72      16.73       5.02
C      18.48      15.64       5.73
C      18.08      17.75      10.98
