18

H       0.91       5.72      12.00
H       3.07       5.24      17.68
H       3.10       3.51      17.83
C       1.69       1.78      16.37
C       2.02       8.29      12.66
C       2.41       4.18      16.05
C       1.41       5.82      12.96
C       1.80       3.00      15.61
C       1.98       6.99      13.40
C       1.52       4.80      13.94
C       2.20       5.21      15.09
S       1.03       3.15      14.04
S       2.68       6.87      14.98
N       3.10       4.33      17.22
O       0.72       0.97      16.12
O       2.59       1.58      17.28
O       1.08       9.12      12.90
O       2.98       8.47      11.84
