20

H      23.38       2.73      20.47
H      20.29       7.01      19.49
H      21.18       7.61      20.92
H      22.99       8.53      19.41
H      22.09       7.93      17.98
C      25.26       6.17      17.85
O      26.25       5.44      17.53
O      25.05       7.38      17.47
C      21.11       3.96      21.38
O      21.27       2.76      21.79
O      20.14       4.74      21.66
C      22.16       4.52      20.48
C      24.22       5.59      18.75
C      22.10       5.82      19.98
C      24.26       4.28      19.28
C      23.10       6.33      19.14
C      23.27       3.76      20.11
C      21.29       7.10      19.95
C      22.42       7.68      19.00
F      25.29       3.45      18.98
