14

C       9.10       5.15      15.77
C       9.92       6.69      14.00
C      10.84       7.08      12.97
O       9.33       4.01      16.31
O       8.12       5.93      16.04
O      11.43       9.79      10.68
O      12.65       7.86      10.93
H      10.92       4.90      14.59
H      11.71       6.45      12.78
H       9.84       8.88      12.38
C      10.69       8.20      12.23
C      11.67       8.64      11.20
H       9.05       7.33      14.18
C      10.07       5.57      14.74
