14

H       6.38       0.39      10.85
H       3.79      -0.68       9.58
O       4.08      -1.80      11.76
O       5.36      -0.51      13.11
H       6.09       1.04       8.36
H       3.32       0.21       7.30
O       5.87       1.92       6.05
O       3.73       1.77       5.31
C       4.94      -0.87      11.94
C       5.45      -0.16      10.74
C       4.74      -0.15       9.59
C       4.65       1.50       6.14
C       4.31       0.66       7.31
C       5.12       0.55       8.39
