32

H       4.76      13.02       7.72
H       4.55      15.52       7.69
H       8.64      15.83       8.98
H       3.42      19.15       8.88
H       7.51      19.42       7.58
H       7.30      21.93       7.55
H       9.23      12.24       9.07
H       9.90      13.84       9.35
H       2.81      22.72       8.71
H       2.14      21.15       9.08
C       5.28      23.43       8.28
C       6.82      11.53       8.36
C       6.79      13.00       8.40
C       5.60      13.65       8.02
C       5.47      15.03       8.01
C       6.59      15.80       8.37
C       7.80      15.19       8.72
C       7.93      13.79       8.76
C       4.27      19.78       8.61
C       5.48      19.16       8.29
C       6.60      19.93       7.89
C       6.47      21.30       7.88
C       5.28      21.96       8.24
C       4.13      21.18       8.60
N       6.61      17.22       8.37
N       5.46      17.75       8.35
N       9.11      13.24       9.17
N       2.95      21.75       8.95
O       4.15      24.04       8.30
O       5.71      10.91       8.25
O       7.96      10.94       8.43
O       6.41      24.02       8.29
