15

C      17.69       9.37       7.39
H      19.88       9.83       5.82
O      20.72      12.52       7.56
C      17.58       8.37       6.47
H      16.93       9.39       8.17
O      15.63       7.42       7.47
C      20.80      11.59       6.68
H      18.10       7.38       4.98
O      21.73      11.46       5.81
O      18.43       8.20       5.43
O      16.61       6.42       5.67
C      19.77      10.55       6.62
C      18.69      10.40       7.44
C      16.51       7.33       6.57
F      18.48      11.26       8.47
