18

O       6.92       2.47       9.00
C       9.46       1.76      11.49
N       8.55      -2.12      10.18
H      10.18      -1.49      12.19
C      11.11       0.87      13.13
H       7.54       0.15       9.20
C      10.04       0.65      12.11
O      11.54       2.05      13.25
H       9.74       2.76      11.82
C       9.70      -0.64      11.71
C       7.94       2.73       9.73
C       8.79      -0.84      10.66
H       7.68      -2.24       9.67
O      11.54      -0.13      13.80
C       8.22       0.28      10.04
H       8.72      -2.88      10.83
C       8.54       1.57      10.46
O       8.47       3.89       9.83
