16

O      18.57      16.56      26.43
Cl      18.02      20.87      27.70
Cl      22.68      17.01      29.31
O      17.53      18.55      26.10
C      20.45      17.65      28.02
O      22.08      21.28      30.68
C      18.41      17.81      26.64
C      19.38      18.45      27.59
C      21.38      19.47      29.33
C      19.30      19.77      28.07
C      21.45      18.13      28.87
C      20.30      20.25      28.92
C      22.39      20.12      30.23
H      20.24      21.27      29.29
H      20.50      16.62      27.67
O      23.48      19.50      30.45
