28

C      -3.93      15.77      11.16
C      -4.30      14.73      12.01
C      -3.56      13.54      12.03
C      -2.44      13.39      11.18
C      -2.07      14.45      10.34
C      -2.81      15.63      10.33
C      -4.74      17.02      11.12
C      -3.94      12.46      12.88
N       0.16      13.95      13.57
N      -4.25      11.56      13.57
H       1.08      10.68      12.66
H      -1.56       9.06       9.68
H      -5.17      14.84      12.66
H      -2.53      16.45       9.68
O       0.25       7.57      10.34
O       1.68       8.46      11.87
H      -2.89      11.18       9.70
H      -1.20      14.34       9.70
C      -0.16       9.75      11.16
C       0.21      10.79      12.01
O      -4.34      17.95      10.34
O      -5.78      17.06      11.88
C      -0.53      11.98      12.02
C      -1.66      12.13      11.18
C      -2.02      11.07      10.34
C      -1.28       9.89      10.33
C       0.65       8.49      11.12
C      -0.15      13.06      12.88
