20

C       5.36       4.60       5.32
C       4.88       5.36       6.40
C       4.84       6.75       6.31
C       5.75       6.70       4.19
C       5.81       5.31       4.19
N       5.40       0.32       5.39
N       5.27       7.41       5.22
H       3.82       0.43       6.74
H       3.71       2.90       6.73
H       7.07       2.88       3.99
H       6.98       0.43       4.05
H       4.56       4.89       7.33
H       4.48       7.36       7.13
H       6.10       7.27       3.32
H       6.18       4.78       3.31
C       4.52       1.01       6.14
C       4.48       2.40       6.15
C       5.39       3.13       5.37
C       6.32       2.40       4.61
C       6.28       1.01       4.64
