26

O      -5.95      11.55       4.69
O      -3.64       4.96      -4.62
H      -2.61       7.76      -0.78
H      -6.98       8.86       0.77
H      -2.72      10.28       2.84
H      -2.64       8.89       0.82
H      -6.87       6.28      -2.81
H      -6.95       7.73      -0.82
O      -3.68      11.54       4.64
O      -5.91       5.01      -4.59
F      -2.34       6.31      -2.78
F      -7.25      10.26       2.80
C      -4.82      11.20       4.19
C      -4.77       5.32      -4.13
C      -4.74       6.19      -2.92
C      -4.85      10.35       2.96
C      -3.56       6.65      -2.30
C      -3.58       7.47      -1.18
C      -6.03       9.92       2.33
C      -6.01       9.14       1.18
C      -3.64       9.95       2.37
C      -3.61       9.17       1.22
C      -5.95       6.62      -2.34
C      -5.98       7.44      -1.22
C      -4.79       7.88      -0.61
C      -4.80       8.73       0.60
