28

C      10.62       1.32      11.66
C       4.95       1.45      12.03
C       8.27       2.65      12.31
H      11.44       1.50      13.76
C       7.42       1.66      13.18
H       4.27       2.36      13.98
C       7.28       2.44      11.11
C       8.28       0.46      12.66
H      11.04       0.89       9.49
C       9.15       1.44      11.78
C       6.42       1.45      11.99
H       4.36       0.53      10.06
C       7.30       0.25      11.47
C       8.14       1.24      10.59
H       6.85       3.23      10.49
H       8.72      -0.33      13.28
H       8.67       3.62      12.64
H       7.13       1.83      14.22
H       6.90      -0.72      11.14
H       8.43       1.07       9.54
N      12.78       0.93      12.20
N       2.80       1.85      12.54
N      12.65       0.74      10.86
N       2.82       1.27      11.31
C      11.57       1.29      12.70
C       4.07       1.95      12.99
C      11.36       0.99      10.52
C       4.11       1.01      11.00
