16

O      10.27      10.70      14.64
O       9.20       8.68      14.53
O      16.73       7.52       9.87
S      11.18       7.28      12.91
S      14.75       8.91      11.49
C      10.17       9.47      14.27
O      15.66       5.50       9.77
C      12.41       9.59      13.06
C      13.52       6.60      11.35
C      11.26       8.93      13.46
H      12.61      10.63      13.32
C      12.70       7.45      12.12
C      13.23       8.75      12.29
C      14.67       7.26      10.95
C      15.76       6.72      10.13
H      13.32       5.56      11.09
