26

C      18.15      20.96       8.10
C      18.14      28.65      13.40
C      19.53      19.73       9.50
H      17.48      20.93       7.23
C      19.52      27.77      15.05
H      17.48      29.47      13.12
H      19.93      18.75       9.73
C      18.41      22.14       8.79
C      18.41      27.58      12.55
H      19.93      27.91      16.06
C      19.84      20.86      10.26
H      17.95      23.08       8.49
C      19.84      26.66      14.27
H      17.95      27.53      11.57
C      19.28      22.09       9.89
H      20.52      20.79      11.11
C      19.28      26.57      12.98
H      20.51      25.89      14.63
C      19.56      23.33      10.63
C      19.56      25.44      12.09
N      18.71      19.79       8.44
N      18.70      28.74      14.62
N      20.25      23.29      11.79
N      20.25      24.37      12.54
N      19.22      24.50      10.04
N      19.22      25.58      10.78
