24

O       6.11      10.00       7.56
O       3.94       9.78       6.87
H       5.46       8.58      15.85
H       7.98       8.58      15.77
H       7.76       9.24      11.55
H       6.41       9.60       9.90
H       2.31       9.48       8.70
H       1.67       9.06      11.10
C       5.99       8.71      14.91
C       7.38       8.71      14.87
C       8.03       8.89      13.64
N       5.24       8.87      13.80
C       5.86       9.05      12.60
C       7.25       9.08      12.50
C       4.95       9.21      11.47
C       5.36       9.47      10.17
N       3.63       9.06      11.79
C       2.71       9.18      10.81
C       9.54       8.90      13.55
C       3.06       9.42       9.49
C       4.41       9.57       9.15
C       4.89       9.82       7.72
O      10.16       8.57      14.61
O      10.05       9.25      12.45
