10

O       7.00      12.78       8.46
O       4.70      12.72       8.30
C       6.71      15.28       3.26
C       5.88      12.98       7.88
C       6.00      13.60       6.59
C       6.80      15.95       1.98
C       6.23      14.14       5.51
O       7.97      16.20       1.54
C       6.48      14.73       4.33
O       5.67      16.19       1.45
