26

H      11.53       3.64       5.00
O      10.95       2.13       3.16
H      12.73       4.35       7.03
H      15.85       1.16       8.61
H      14.93       5.61      10.60
H      17.08       1.90      10.60
H      13.68      -0.08       5.01
H      14.89       0.61       7.04
O      16.57       5.40      12.41
O      17.71       3.43      12.41
O      12.09       0.17       3.16
H      13.68       4.90       8.60
C      11.81       1.32       3.64
C      16.85       4.24      11.93
C      12.54       1.74       4.87
C      16.09       3.80      10.72
C      12.27       2.98       5.46
C      12.95       3.37       6.61
C      16.33       2.55      10.15
C      15.63       2.14       9.02
C      15.13       4.64      10.15
C      14.42       4.23       9.02
C      13.48       0.89       5.46
C      14.16       1.29       6.61
C      13.92       2.54       7.21
C      14.66       2.97       8.42
