18

O       1.55      10.26      15.43
O       3.90      12.32      21.85
H       3.05       8.91      16.91
C       3.95       9.49      18.78
C       2.18      10.72      17.68
O       2.16      13.41      20.89
C       4.76       8.24      18.83
C       3.98      10.44      19.80
C       3.06       9.64      17.71
H       4.67      10.35      20.64
C       3.02      12.50      20.91
C       3.07      11.51      19.79
O       0.11      11.42      16.70
O       5.89       8.22      19.44
O       4.24       7.24      18.26
C       1.24      10.80      16.52
C       2.16      11.64      18.73
H       1.45      12.46      18.74
