20

H      13.64      14.71      19.44
H       9.69      12.24      21.14
N      12.09      13.90      17.50
N      11.11      13.28      23.09
O       8.67      11.83      19.02
O      10.07      12.16      17.25
C       9.74      12.25      18.47
C      13.62      14.66      22.12
O      13.57      14.29      23.33
O      14.45      15.46      21.58
C      10.73      12.92      19.39
C      12.58      14.07      21.20
C      11.84      13.63      18.94
C      11.45      13.38      21.65
C      12.77      14.18      19.82
C      10.55      12.79      20.77
O      11.35      14.73      16.96
O      13.05      13.31      16.99
O      10.70      14.31      23.63
O      11.19      12.16      23.60
