26

C       4.38       1.26      25.73
C       4.61       1.24      24.36
C       2.91       1.24      19.70
C       2.69       1.23      21.07
C       3.77       1.21      21.98
C       3.54       1.22      23.45
H       5.95       1.19      22.07
H       1.36       1.19      23.35
H       5.22       1.28      26.42
H       5.64       1.25      24.02
H       2.07       1.25      19.02
H       1.66       1.24      21.42
O       3.22       1.26      17.04
O       5.48       1.25      17.10
O       4.06       1.28      28.39
O       1.80       1.28      28.32
C       4.33       1.24      17.66
C       2.96       1.27      27.76
F       6.56       1.20      19.64
F       0.74       1.22      25.78
C       4.21       1.23      19.15
C       3.08       1.25      26.28
C       5.27       1.21      20.07
C       5.07       1.20      21.44
C       2.03       1.23      25.35
C       2.24       1.21      23.98
