17

H      23.80      12.28      22.26
C      20.00      14.40      20.20
O      25.39      11.64      18.90
O      24.26      12.30      17.02
C      23.32      12.70      19.11
S      21.97      13.46      18.30
S      21.21      13.65      22.40
C      21.21      13.79      19.80
C      24.40      12.17      18.29
H      19.25      14.84      19.55
O      24.11      12.17      21.34
C      23.18      12.70      20.50
O      17.82      15.50      21.74
C      18.77      14.95      22.38
C      19.88      14.40      21.58
O      18.89      14.83      23.65
C      21.97      13.32      20.89
