46

N       3.45      10.97      19.94
H       4.14      12.47      17.99
N       5.87       7.47      17.06
H       3.06       9.75      18.31
O       6.61      14.09      13.00
H       6.53       9.62      15.89
O       6.29       6.28      21.99
H       7.43      11.11      17.03
O       4.32      14.07      13.00
H       4.04       8.43      17.08
O       3.99       6.25      22.00
H       7.96       9.01      17.83
H       8.52       9.95      19.25
H       7.53       8.52      19.50
O       7.00      10.45      21.12
O       5.74      12.01      20.25
O       7.90      12.90      18.68
O       6.05      13.67      17.78
H       5.00       8.44      14.45
H       3.63       9.50      14.88
H       5.03      10.15      13.99
O       2.56      12.67      16.18
O       2.22      10.52      16.39
O       3.01      12.11      19.94
O       3.48      10.19      20.90
C       5.14       6.61      21.57
C       5.47      13.75      13.44
C       6.54      11.33      17.63
O       6.97       7.49      16.50
O       5.31       6.47      17.51
C       4.06      11.48      17.53
C       3.91      10.38      18.57
C       5.12       7.55      20.48
C       5.34      11.22      16.66
C       6.49      10.28      18.78
C       5.15       9.45      18.62
C       5.07       8.79      17.19
C       5.45       9.76      16.08
C       5.06       8.43      19.65
C       5.44      12.17      15.57
C       5.47      12.87      14.59
C       7.70       9.37      18.83
C       4.72       9.46      14.77
N       6.41      10.98      20.18
N       6.83      12.77      18.09
N       2.84      11.57      16.63
