28

O       2.63       3.64      16.54
O       0.65       2.62      16.91
H       6.07      -1.92      14.29
H       5.12      -1.71      12.80
O       2.43      -3.43      16.26
H       6.79      -1.15      12.87
O       0.46      -2.37      16.57
C       2.43       1.33      16.00
C       1.80       0.12      16.32
C       2.34      -1.08      15.87
C       3.50      -1.07      15.08
C       4.14       0.12      14.73
H       0.89       0.12      16.93
C       3.58       1.32      15.20
H       3.90      -2.02      14.73
C       1.85       2.61      16.51
H       4.04       2.27      14.94
H       6.63       0.08      15.76
C       1.69      -2.37      16.25
C       5.87      -1.24      13.45
C       5.44       0.15      13.93
H       7.51       0.68      14.34
C       6.54       0.70      14.86
H       6.34       1.74      15.16
C       5.29       1.07      12.71
H       6.24       1.12      12.15
H       4.52       0.70      12.02
H       5.03       2.10      12.99
