24

O      15.02       6.85       9.61
H      15.34      10.16       9.50
H      15.18       4.94      10.25
H      16.63       5.92      10.57
H      15.70       4.90       7.82
H      17.11       5.95       8.08
H      18.18       4.19       9.52
H      17.82       3.54       7.91
H      16.78       3.13       9.29
C      15.86       5.68       9.82
C      16.49       5.16       8.54
C      17.36       3.93       8.83
O      10.27       8.10      10.27
O      20.30       7.58       8.94
O      10.18      10.01       9.01
O      20.12       9.51      10.17
C      10.79       9.08       9.63
C      19.65       8.48       9.57
C      12.22       9.14       9.61
C      14.83       9.20       9.56
C      15.61       8.06       9.60
C      17.01       8.18       9.59
C      13.44       9.17       9.57
C      18.23       8.32       9.60
