37

O      12.39       9.18       9.60
O      11.66       7.06       9.25
H      13.16       9.72      13.42
H      15.40       8.97      13.80
H      15.11       5.67      12.24
H      13.10       5.81      13.13
H      15.28       6.69      10.17
H      13.16       6.26      10.83
H      15.66       9.94      12.33
H      13.40       9.85      11.66
H      14.90       6.34      15.77
H      15.14       9.05       7.78
H      11.02       7.50       8.65
C      15.13       9.08      12.74
C      13.62       9.24      12.55
C      15.11       6.56      12.88
C      13.61       6.76      13.30
C      15.56       7.78      12.02
C      13.01       7.83      12.33
C      13.35       7.34      10.87
C      14.87       7.60      10.63
C      11.56       7.89      12.43
C      16.98       7.79      11.75
C      15.19       8.72       9.64
C      12.44       7.99       9.84
S      16.43       6.01      14.08
S      13.02       7.10      15.05
N      10.41       7.94      12.34
N      18.08       7.85      11.39
O      15.69       5.35      15.19
O      17.23       5.12      13.28
O      17.12       7.24      14.53
O      12.36       8.39      15.06
O      12.23       5.93      15.37
O      14.27       7.20      15.94
O      15.61       9.83       9.91
O      14.98       8.28       8.37
