26

H       4.32      13.82      22.91
H       7.36      15.52      25.88
H       5.35      18.15      22.28
H       5.22      15.69      22.12
H       7.76      11.06      25.02
H       8.03      13.53      25.10
C       5.04      11.85      23.35
C       5.12      13.25      23.37
C       6.98      17.46      25.06
C       6.91      16.06      25.05
C       5.78      17.53      23.06
C       5.70      16.15      22.98
C       7.02      11.72      24.56
C       7.16      13.10      24.61
H       4.29      10.47      21.90
H       3.35      10.54      23.38
H       3.23      11.88      22.20
C       6.19      13.90      24.00
C       6.27      15.38      24.01
H       8.61      18.67      25.71
H       7.11      18.99      26.56
H       8.03      17.50      26.93
C       3.91      11.16      22.66
C       7.72      18.19      26.13
N       6.00      11.10      23.94
N       6.39      18.18      24.07
