16

H       1.35       9.08       8.88
H       2.60       7.42       7.54
H       1.37       3.91       4.75
H      -1.17       3.91       4.75
H      -2.39       7.36       7.62
H      -1.15       9.04       8.93
C      -1.31       7.37       7.61
C      -0.60       8.31       8.33
C       0.81       8.33       8.30
C       1.51       7.41       7.55
C       0.82       6.44       6.79
C      -0.62       6.43       6.81
C      -0.61       4.63       5.34
C       0.80       4.63       5.34
N      -1.30       5.50       6.06
N       1.50       5.52       6.04
