30

C      16.02      11.71      25.10
H      18.02      11.75      23.36
H      18.00       9.57      16.95
H      19.17      11.58      21.15
H      19.16      10.81      18.80
H      13.88      10.70      23.74
H      12.60       9.89      21.74
H      12.57       9.24      19.36
O      17.07       8.17      15.11
H      13.82       8.69      17.25
O      17.14      12.08      25.54
O      14.92      11.74      25.77
O      14.82       7.93      15.23
C      17.09       9.59      17.54
C      15.93       8.35      15.68
C      17.09      10.15      18.83
C      17.10      11.03      21.54
C      18.27      11.15      20.71
C      18.26      10.73      19.41
C      17.11      11.38      22.90
C      15.96      11.25      23.68
C      14.72       9.09      17.72
C      14.68       9.60      19.02
C      15.89      10.10      19.60
C      13.49       9.58      19.82
C      13.51       9.95      21.14
C      14.71      10.42      21.76
C      15.90      10.52      20.96
C      14.77      10.79      23.11
C      15.92       9.05      16.99
