38

H       7.96       4.82      10.69
H      10.54      -4.31       8.30
H       6.50      -3.87       9.67
H      11.78       4.86       8.76
H       7.83       0.54       8.55
H      10.75       0.22       9.50
H      11.73       2.37       8.60
H       6.68      -1.40       9.37
H      12.50      -3.34       7.14
H       5.95       3.40      11.55
C       9.83       6.48       9.73
C       8.71      -1.43       8.69
C      10.90       2.91       9.05
C       7.52      -2.04       9.12
C      10.94       4.30       9.14
C       7.42      -3.42       9.31
C       9.80       0.72       9.27
C       8.76       0.02       8.78
C       8.54      -5.68       9.37
C       9.85       4.99       9.69
C       8.54      -4.22       9.07
C       8.76       4.27      10.21
C       9.71      -3.66       8.55
C       8.74       2.88      10.13
C       9.78      -2.29       8.32
C       9.79       2.17       9.50
S      11.24      -1.65       7.50
S       7.41       1.99      10.94
O      10.90       7.08       9.42
O       7.42      -6.29       9.37
O      10.83      -0.69       6.51
O       8.73       7.04      10.06
O      12.27      -1.35       8.47
O      11.73      -2.95       6.66
O       6.36       1.67      10.00
O       7.98       0.99      11.79
O       6.81       3.14      11.93
O       9.67      -6.22       9.58
