16

C       6.88       9.97       4.29
C       8.02       9.83       5.10
C       9.14      10.65       4.86
C       9.12      11.58       3.84
C       7.98      11.71       3.03
O       9.09      13.17       1.54
H       5.98      11.02       2.62
H       6.02       9.33       4.48
H      10.01      10.53       5.50
H       9.98      12.22       3.64
O       6.85      12.93       1.35
C       7.97      12.68       1.90
C       8.02       8.83       6.20
O       6.89       8.34       6.53
O       9.15       8.56       6.74
C       6.86      10.91       3.26
