16

O      12.40      10.36       5.17
O      12.40       8.10       4.94
C      14.48       9.23       5.06
C      12.98       9.23       5.06
C      15.19      10.40       5.39
C      15.19       8.07       4.73
O      19.36      10.22       5.62
O      19.36       8.25       4.48
H      14.62      11.30       5.63
C      16.58      10.39       5.40
H      14.62       7.17       4.48
C      16.58       8.07       4.71
H      17.13      11.29       5.67
H      17.13       7.18       4.44
C      17.28       9.23       5.06
C      18.78       9.24       5.05
