20

F      17.68      17.37      13.84
F      19.43      18.44      12.19
F      17.98      12.49      10.82
H      19.30      13.77       9.04
C      17.72      14.87      11.26
C      16.27      14.87      13.31
C      17.34      15.47      12.45
C      17.95      16.70      12.70
C      18.87      17.28      11.81
C      19.23      16.67      10.60
C      18.61      15.45      10.36
C      18.43      14.38       9.30
C      17.45      13.68      10.36
C      20.21      17.28       9.64
Cl      17.70      14.96       7.79
Cl      15.77      13.41       9.89
O      20.98      16.45       9.06
O      20.16      18.54       9.50
O      16.40      13.64      13.57
O      15.32      15.65      13.63
