28

H       0.83      13.29      10.81
H       4.59      11.59      11.96
H       4.87      13.33      13.73
H       4.11      15.39      14.82
H      -1.62      16.79      12.73
H      -0.64      17.68      11.55
H      -2.00      16.68      11.01
H       0.13      15.50      10.54
H      -0.86      14.60      11.66
H       0.40      17.21      13.65
C       2.56      11.33      10.23
C       2.68      12.36      11.29
C       2.26      16.38      14.34
C       0.91      15.45      12.52
C       1.12      16.40      13.50
C       3.22      15.39      14.19
C       3.03      14.37      13.23
C       1.87      14.38      12.39
C       1.71      13.34      11.45
C       3.84      12.36      12.11
C       3.99      13.33      13.08
C       2.40      17.42      15.39
C      -0.26      15.52      11.57
C      -1.18      16.74      11.73
O       1.39      11.00       9.82
O       3.66      10.87       9.78
O       1.30      17.88      15.84
O       3.56      17.77      15.78
