19

C       6.56      10.16       4.20
N       9.44       9.85       6.52
H       3.04      11.38       7.85
C       5.76      10.35       6.47
H      10.15       9.95       5.80
C       4.70      10.57       7.47
O       7.36       9.91       2.00
H       9.69      10.41       7.35
O       5.15      10.27       2.27
C       8.14      10.01       6.05
O       3.54      11.03       7.02
H       7.23      10.09       8.02
O       4.90      10.37       8.69
H       4.51      10.60       4.71
H       8.66       9.82       3.96
C       7.06      10.14       6.95
C       5.50      10.39       5.09
C       7.86       9.98       4.68
C       6.33      10.12       2.71
