24

C       7.56       4.02       6.04
H       4.60       5.13       6.25
H       4.55       3.01       8.14
C       5.43       4.47       6.49
C       5.13       3.01       1.56
C       6.81       4.95       7.05
H       7.07       5.98       7.29
C       5.59       3.30       2.88
C       5.86       3.42       4.07
H       8.41       4.28       5.42
H       8.37       2.21       7.34
H       5.91       1.33       6.28
O       5.56       1.94       1.01
O       7.50       5.50      12.49
O       8.63       3.52      12.54
O       4.28       3.82       1.04
C       7.08       3.91       9.50
C       7.84       4.37      11.99
C       7.34       4.06      10.68
C       6.16       2.37       6.51
C       6.17       3.54       5.44
C       7.53       2.85       7.07
C       6.79       3.78       8.12
C       5.40       3.30       7.52
