20

S      23.13      14.73      19.61
S      20.08      12.23      21.04
H      18.45      14.46      19.67
H      19.01      15.79      18.68
H      24.73      12.72      21.33
H      24.18      11.24      22.08
N      19.19      14.91      19.15
N      24.02      12.01      21.43
C      21.59      16.60      18.28
C      21.61      10.38      22.40
O      20.44      17.04      17.89
O      22.72      17.16      18.03
O      20.48       9.85      22.68
O      22.77       9.93      22.79
C      20.48      14.64      19.48
C      22.72      12.32      21.18
C      21.60      15.39      19.06
C      21.61      11.57      21.59
C      22.30      13.45      20.41
C      20.91      13.52      20.26
