52

N      -0.48      19.74       4.27
N       3.33      19.73       0.15
H      -4.13      19.26       7.45
N       2.92      19.42      -1.02
H      -2.68      19.20       5.40
N       6.38      19.85      -5.39
H       0.64      20.59       7.78
N       7.45      20.53      -5.27
H       2.18      20.31       4.50
O      -4.69      19.51       9.79
H       3.81      20.26       2.60
O      -3.09      20.43      11.03
H       0.65      19.15      -0.11
O      -0.64      20.78      10.02
H      -0.99      19.21       1.79
O      12.02      21.41      -9.63
H       2.53      18.54      -3.38
O      10.45      20.64     -11.01
H       4.11      18.71      -5.34
O       7.96      20.13     -10.07
H       6.98      20.73      -2.85
H       5.43      20.54      -0.89
H       9.85      21.43      -5.32
H      11.36      21.56      -7.33
H       6.69      19.95      -7.84
C      -3.51      19.96       9.90
C      -2.58      19.98       8.75
C      -3.08      19.56       7.50
C      -2.29      19.53       6.36
C      -0.94      19.92       6.48
C      -0.42      20.31       7.71
C      -1.21      20.37       8.87
C       0.51      19.74       3.25
C       1.86      20.05       3.49
C       2.76      20.03       2.44
C       2.33      19.70       1.14
C       0.97      19.40       0.90
C       0.07      19.43       1.95
C       3.89      19.52      -2.03
C       3.52      19.00      -3.28
C       4.38      19.09      -4.36
C       5.62      19.74      -4.21
C       6.01      20.25      -2.95
C       5.16      20.14      -1.87
C       8.20      20.64      -6.47
C       9.50      21.14      -6.31
C      10.33      21.22      -7.42
C       9.87      20.86      -8.71
C      10.83      20.99      -9.82
C       8.51      20.43      -8.88
C       7.71      20.30      -7.73
N      -0.00      19.92       5.43
