20

H      13.67      14.78      19.44
H       9.71      12.31      21.14
N      11.14      13.34      23.09
N      12.11      13.96      17.49
C       9.76      12.33      18.47
O       8.71      11.87      19.02
O      10.07      12.28      17.24
C      13.64      14.73      22.10
C      10.75      12.99      19.38
C      12.61      14.14      21.19
C      11.87      13.70      18.93
C      11.47      13.45      21.65
C      12.79      14.25      19.81
C      10.57      12.87      20.77
O      13.57      14.41      23.33
O      14.51      15.49      21.56
O      11.42      14.83      16.96
O      13.04      13.33      16.96
O      10.69      14.36      23.63
O      11.26      12.23      23.60
