32

C      14.53       6.80       5.01
C      12.00       6.81       6.84
H      13.18       5.14       5.26
C      11.39       5.41       1.39
H      13.78       5.46       2.84
C      11.66       3.78       3.29
H      12.91       7.00       2.84
C      11.57       5.41       7.21
H      10.77       5.73       3.39
C      12.33       4.61       8.07
H      11.28       7.54       7.21
C      10.40       4.85       6.67
H      12.97       7.04       7.31
C      10.04       3.56       7.02
H      10.44       4.92       1.10
C      11.91       3.32       8.37
H      12.20       4.95       0.80
H      11.32       6.47       1.10
N      12.14       7.00       5.38
H      10.72       3.29       3.02
N      10.78       2.80       7.85
H      11.79       3.65       4.37
O      14.58       8.07       4.90
H      12.48       3.25       2.79
O      15.53       6.06       5.25
H      13.26       4.97       8.51
H       9.77       5.40       5.97
H       9.13       3.11       6.63
H      12.51       2.67       9.00
C      13.17       6.13       4.78
C      12.92       5.99       3.28
C      11.63       5.25       2.89
