24

O      13.88       5.80      14.34
O      13.98       4.50      12.50
O      13.88      10.28       8.41
O      13.98      11.58      10.25
H      14.13       7.58      14.71
H      14.57       9.21      14.41
H      14.13       8.51       8.04
H      14.57       6.88       8.34
H      13.73      11.34      12.05
H      13.29      10.52      13.48
H      13.73       4.74      10.70
H      13.29       5.57       9.26
C      13.93       5.66      13.05
C      13.93      10.42       9.69
C      13.93       6.87      12.20
C      13.93       9.22      10.54
C      13.96       8.17      12.78
C      13.96       7.91       9.96
C      13.90       9.33      11.97
C      13.90       6.76      10.78
N      13.98       8.42      14.15
N      13.98       7.67       8.59
N      13.88      10.54      12.65
N      13.88       5.54      10.09
