15

H       6.65      11.75       7.65
O       0.53      15.79       6.62
C       2.89      14.20       6.62
H       2.41      14.45       5.67
C       4.08      13.41       6.51
N       4.91      13.01       7.55
C       2.28      14.59       7.76
H       4.91      13.40       8.53
N       5.72      12.07       5.73
C       4.62      12.81       5.38
H       2.67      14.34       8.75
C       0.99      15.31       7.73
C       5.87      12.22       7.05
H       4.27      12.86       4.35
O       0.35      15.43       8.83
