16

O      25.19       6.46       7.39
O      26.54       8.29       7.39
C      22.33       9.98       2.64
C      24.73       8.21       5.87
C      23.15       9.37       3.75
C      23.62       7.55       5.32
C      24.27      10.03       4.30
C      22.85       8.11       4.30
C      25.03       9.47       5.32
O      22.69      11.12       2.22
O      21.34       9.29       2.22
F      23.23       6.34       5.76
F      24.66      11.25       3.86
F      21.81       7.37       3.86
F      26.07      10.21       5.76
C      25.56       7.61       6.97
