24

H       0.32      10.87       2.64
H       2.03       9.43       3.20
S       1.32      12.88       2.97
H       3.15      10.76       3.33
N       1.09      11.28       3.19
H       0.96      13.02       0.12
H       4.98      13.54      -1.26
H       5.82      13.48       1.10
O       3.29       9.67       5.62
H       4.18      13.23       2.97
O       1.22      10.49       5.90
O       1.95      13.41       4.16
O       0.04      13.39       2.52
O       1.15      13.40      -2.30
O       3.28      13.41      -3.06
C       2.23      10.19       5.18
C       2.16      10.42       3.66
C       2.49      13.08       1.65
C       2.02      13.10       0.34
C       2.93      13.27      -0.71
C       4.29      13.41      -0.43
C       4.75      13.38       0.89
C       3.85      13.22       1.94
C       2.42      13.36      -2.13
