18

C       8.97       6.63       8.90
H       7.51      11.01      12.26
H       8.15      12.16      11.03
H       8.97      11.99      12.62
C       7.37       9.46      10.20
C      11.10       8.72       9.67
O       6.82      10.33       9.45
O       6.84       8.49      10.83
C       9.63       8.78       9.64
C       8.86       9.59      10.42
O       8.95       8.05       8.69
H       8.42       6.18       8.06
H       8.47       6.38       9.85
O       9.33      10.45      11.35
C       8.42      11.46      11.83
O      11.67       9.24      10.69
H      10.01       6.25       8.90
O      11.67       8.16       8.68
