18

H       8.31      21.75      12.72
O       6.44      21.20      17.29
C       6.39      20.24      15.12
C       6.32      19.00      13.02
H       8.34      22.94      14.78
N       7.82      22.22      15.26
C       5.93      19.16      14.33
H       5.25      18.45      14.80
H       7.51      22.35      16.22
C       7.53      19.86      10.99
O       7.18      18.80      10.38
C       7.18      19.96      12.44
O       4.97      19.53      16.86
C       5.90      20.33      16.51
O       8.14      20.86      10.47
C       7.65      21.03      13.19
H       5.98      18.16      12.42
C       7.30      21.18      14.55
