41

H      -1.41      10.89       5.28
H      -0.73       9.12       7.46
H      -1.04       9.17       5.15
H      -4.57       7.98       5.41
C      -1.54       9.81       7.19
C      -3.96      10.36       7.58
C      -4.07      10.58       6.05
H      -1.29      10.79       7.62
C      -3.67      10.06       2.67
C      -2.86       9.31       7.85
H      -3.67      11.31       8.07
C      -1.69       9.89       5.65
H      -3.80      11.61       5.78
C      -3.16       9.61       5.25
H      -5.12      10.43       5.75
H      -2.49       7.24       7.32
C      -3.25       6.62       3.79
C      -4.17       5.45       4.09
H      -4.19       7.60       7.68
C      -4.67       4.80       2.80
H      -5.81      10.61       8.25
H      -2.38       6.29       3.20
O      -2.35       7.53      12.29
H      -3.77       7.39       3.20
H      -3.62       4.72       4.70
H      -5.01       5.80       4.70
O      -5.02       9.50       0.87
H      -5.27       5.50       2.20
H      -5.31       3.93       3.02
O      -1.17       9.48      12.34
H      -3.84       4.45       2.18
O      -3.91      11.49       0.85
C      -1.97       8.65      11.78
O      -5.17       9.87       8.14
C      -3.51       8.15       5.66
C      -3.28       7.98       7.18
O      -2.69       7.20       4.99
C      -3.39       9.84       3.84
C      -2.65       9.13       9.27
C      -2.42       8.96      10.46
C      -4.21      10.36       1.38
