25

H       5.43       3.23      14.92
H       7.62       5.05      16.12
H       5.55       7.22      15.40
H       2.04       5.29      15.42
H       3.26       3.08      16.74
H       3.37       7.05      17.21
C       4.42       4.71      21.49
C       4.24       5.54      10.63
C       5.04       6.30      15.70
C       3.83       6.21      16.68
C       4.50       4.98      17.43
C       4.51       4.73      20.05
C       4.23       5.52      12.08
C       5.71       5.06      16.42
C       4.98       4.07      15.44
C       4.31       5.31      14.71
C       3.76       4.00      16.42
C       3.09       5.22      15.72
C       4.54       4.83      18.84
C       4.25       5.44      13.30
O       5.51       4.60      22.15
O       3.24       4.84      21.98
O       5.38       5.73      10.09
O       3.13       5.34      10.04
O       7.02       4.97      16.88
