30

H       6.39       6.55       4.67
H       9.35       5.91       0.03
H      10.54       6.12       1.99
C       8.59       7.28       6.06
H       9.35       6.69      -1.90
H       6.24       5.87       2.30
C       7.08       7.26      -5.92
C       8.53       6.75       4.67
C       7.13       6.85      -4.48
C       7.29       6.46       4.07
H       5.16       5.66      -1.96
C       8.34       6.93      -3.77
C       7.22       6.07       2.74
C       8.41       6.57      -2.44
C       8.38       6.00       1.94
C       7.27       6.12      -1.74
C       9.62       6.21       2.58
C       6.06       6.01      -2.47
C       9.70       6.57       3.92
H       9.22       7.31      -4.29
C       8.36       5.88       0.49
C       5.99       6.37      -3.81
C       7.27       5.89      -0.31
O       9.70       7.21       6.67
O       5.95       7.25      -6.50
O       7.51       7.78       6.54
H      10.66       6.75       4.40
H       6.27       5.83       0.15
O       8.20       7.57      -6.46
H       5.06       6.29      -4.37
