48

H       4.83       2.24       9.21
H       3.95      -0.07       5.66
H       2.89       4.10       5.82
H       5.31       8.10       7.65
H       5.10       9.95       9.30
H       2.65       7.66      11.76
H       2.85       5.68      10.26
H       7.14      -1.28       8.86
H       8.35      -3.05      10.16
H       4.79      -4.94      11.14
H       3.44      -3.28       9.85
H       0.83       1.62       2.91
H      -0.28       1.40       0.69
H       3.30       1.96      -1.33
H       4.57       2.19       0.81
C       3.86       3.30       7.59
C       4.43       2.18       8.20
C       4.46       0.99       7.49
C       3.94       0.87       6.21
C       3.37       2.01       5.64
C       3.33       3.23       6.30
C       4.26       5.64       7.84
C       4.36      -1.13       8.56
C       3.55       2.16       3.29
C       4.09       6.74       8.82
C       4.71       7.97       8.54
C       4.58       9.00       9.46
C       3.24       7.71      10.85
C       3.35       6.61      10.00
C       5.19      -2.15       9.25
C       6.59      -2.08       9.33
C       7.26      -3.07      10.05
C       5.28      -4.13      10.59
C       4.53      -3.20       9.89
C       2.79       1.96       2.03
C       1.42       1.71       2.00
C       0.79       1.59       0.76
C       2.80       1.90      -0.37
C       3.50       2.03       0.82
N       3.85       8.89      10.59
N       6.62      -4.08      10.69
N       1.46       1.69      -0.41
O       3.79       4.45       8.36
O       5.13      -0.09       8.09
O       2.76       1.90       4.39
O       4.77       5.75       6.74
O       3.14      -1.18       8.44
O       4.71       2.52       3.37
