44

H      15.67      10.16      11.66
H      24.69      10.01       7.83
H      22.44      10.40      12.23
H      24.94      10.60      12.07
H      18.21      12.08       7.84
H      15.71      12.09       7.82
H      20.27      11.63       8.88
H      18.15      10.14      11.69
H      20.22       7.47      12.06
H      21.54       7.78      10.90
H      18.55       7.58      10.22
H      19.82       7.98       9.06
H      20.90       5.72       9.46
H      19.23       5.55       8.90
H      19.62       5.31      10.61
H      23.22       8.74       6.58
H      23.19      10.49       6.17
H      21.77       9.46       5.81
C      19.82      10.99       9.64
C      20.67      10.18      10.31
C      24.94      10.33       9.93
C      18.37      11.06       9.75
C      17.65      11.65       8.68
C      16.26      11.66       8.66
C      26.42      10.44       9.82
C      14.06      11.01       9.68
C      15.54      11.09       9.72
C      16.24      10.57      10.82
C      17.63      10.56      10.84
C      22.78      10.08       8.86
C      20.47       7.95      11.11
C      19.61       7.40       9.97
C      19.85       5.92       9.73
C      22.59       9.63       6.52
C      24.17      10.12       8.78
C      24.33      10.44      11.18
C      22.94      10.34      11.27
C      22.14      10.20      10.12
O      27.02      11.06      10.76
O      13.46      11.51       8.66
O      26.98       9.89       8.80
O      13.49      10.40      10.65
O      20.22       9.36      11.33
O      21.96       9.91       7.77
