28

S       2.63      14.29       0.55
S       1.94      12.60      -0.55
H       0.63      12.75      -3.11
H       5.40      13.99      -3.76
H       4.57      13.43      -1.48
H       3.94      14.14       3.11
H      -0.82      12.90       3.76
H       0.00      13.46       1.48
O       4.56      14.19       5.46
O       2.98      13.47       6.86
O       0.51      12.96       5.93
O       0.01      12.70      -5.46
O       1.59      13.41      -6.86
O       4.06      13.93      -5.93
C       2.54      13.05      -2.14
C       1.69      13.01      -3.24
C       2.15      13.27      -4.54
C       3.52      13.65      -4.74
C       4.35      13.71      -3.60
C       3.89      13.40      -2.33
C       1.20      13.11      -5.66
C       2.03      13.83       2.14
C       2.89      13.88       3.24
C       2.42      13.62       4.54
C       1.05      13.24       4.74
C       0.22      13.18       3.60
C       0.68      13.49       2.33
C       3.38      13.77       5.66
