28

O       3.90       0.93      26.94
O       3.97      -1.70      27.05
H       5.35      -3.76      28.08
H       8.37      -3.59      30.86
H       8.12       3.32      30.70
H       5.06       3.15      27.97
O       9.46      -1.37      31.95
O       9.37       1.25      31.88
C       5.96      -3.08      28.69
C       5.84      -1.69      28.64
H       3.91       1.90      27.04
C       4.87      -1.02      27.81
H       9.27       2.21      31.77
H       9.38      -2.34      31.94
C       7.68      -2.99      30.26
C       7.67      -1.58      30.29
C       8.55      -0.81      31.11
C       7.57       1.24      30.22
C       7.48       2.64      30.14
C       5.74       2.54      28.57
C       5.74       1.14      28.56
C       4.83       0.36      27.76
C       6.73      -0.92      29.45
C       6.68       0.48      29.41
C       8.51       0.58      31.08
N       6.86      -3.69      29.48
N       6.59       3.25      29.34
H       3.91      -2.63      27.33
