61

C       0.31       1.32       4.45
C       2.13       5.03      10.29
C       1.22       1.13       8.67
C       0.16       0.21       8.55
C       2.28       0.84       9.55
C       0.17      -0.96       9.30
C       2.27      -0.33      10.29
C       1.22      -1.26      10.18
C       1.22      -2.50      10.97
H      -3.22       4.25       0.71
H       5.66       9.66       9.23
C       2.41      -3.13      11.37
C       0.02      -3.13      11.37
H      -2.19       4.31       2.94
H       4.62       7.67       8.22
C       2.36      -4.30      12.11
C       0.08      -4.30      12.12
H      -0.31       0.51       2.00
H       2.75       6.90      12.07
N      -2.38       2.44       0.16
N       4.81       9.38      11.10
H      -1.44       0.64      -0.21
N       1.22       2.32       7.91
H       3.87       8.95      12.89
N       1.22      -4.90      12.50
H      -1.32       4.31       4.69
H       3.76       6.08       7.48
H      -0.32       4.26       6.91
H       2.76       4.05       6.58
H       1.49       0.45       6.01
H       0.95       3.24      10.41
H       0.50       0.48       3.78
H       1.94       5.27      11.33
H      -0.66       0.41       7.87
H       3.10       1.55       9.66
H      -0.65      -1.67       9.17
H       3.09      -0.52      10.98
H       3.38      -2.72      11.09
H      -0.95      -2.70      11.12
H       3.29      -4.78      12.42
H      -0.86      -4.78      12.42
C      -2.57       3.44       1.04
C       5.00       9.01       9.82
C      -1.97       3.46       2.29
C       4.41       7.89       9.27
C      -1.13       2.41       2.70
C       3.57       7.07      10.04
C      -0.94       1.37       1.77
C       3.38       7.48      11.38
C      -1.57       1.42       0.53
C       4.01       8.62      11.86
C      -0.50       2.40       4.03
C       2.94       5.86       9.49
C      -0.70       3.45       4.95
C       3.14       5.48       8.14
C      -0.14       3.43       6.22
C       2.58       4.33       7.62
C       0.66       2.35       6.62
C       1.78       3.50       8.44
C       0.87       1.29       5.71
C       1.56       3.87       9.77
