16

C      23.26      12.85      20.51
O      25.50      11.78      18.90
O      24.35      12.41      17.03
C      23.42      12.83      19.12
C      21.30      13.92      19.78
C      22.05      13.48      20.88
C      20.09      14.54      20.16
C      19.94      14.57      21.54
Br      24.44      12.16      21.79
Br      18.91      15.23      18.87
C      18.85      15.11      22.37
O      17.85      15.61      21.76
O      19.01      15.02      23.63
S      22.08      13.58      18.29
S      21.28      13.82      22.38
C      24.51      12.30      18.30
