18

C      18.83      12.27      14.94
C      18.83       8.00      15.01
C      17.62      10.17      14.94
O      21.31      13.60      15.07
O      17.72       7.36      15.07
O      16.35      13.60      15.07
C      20.04      11.57      14.94
H      20.99       9.63      14.96
C      17.62      11.57      14.94
O      19.95       7.36      15.07
C      21.32      12.31      15.01
C      18.83       9.47      14.94
C      16.34      12.31      15.01
C      20.05      10.17      14.94
O      15.23      11.66      15.07
H      18.83      13.36      14.96
O      22.43      11.66      15.07
H      16.68       9.63      14.96
