20

H      23.35       2.73      20.50
H      20.32       7.02      19.49
H      21.21       7.62      20.91
H      23.02       8.51      19.40
H      22.13       7.92      17.97
Cl      25.57       3.13      18.96
C      25.26       6.18      17.85
O      26.26       5.47      17.53
O      25.02       7.38      17.48
C      21.11       3.97      21.39
O      21.27       2.77      21.81
O      20.14       4.75      21.66
C      22.16       4.52      20.49
C      24.24       5.57      18.75
C      22.11       5.82      19.98
C      24.28       4.24      19.29
C      23.11       6.31      19.14
C      23.27       3.75      20.12
C      21.31       7.10      19.94
C      22.45       7.66      18.99
