30

H       5.69      -0.18       8.67
H       6.69       0.99      10.64
C       8.57       0.36       2.18
H      10.38       1.82       3.54
O       7.44       0.04       1.65
O       7.39       2.49      12.57
H      10.38       3.16      10.19
O       9.64       2.76      12.53
H      11.40       2.96       5.51
H      11.39       3.46       7.93
H       6.74      -0.42       3.99
H       5.72      -0.71       6.26
O       9.68       0.38       1.57
C       8.51       2.45      11.98
C       9.58       2.57       9.74
C       9.59       2.33       8.36
C       9.59       1.75       5.56
C      10.62       2.56       6.16
C      10.61       2.84       7.49
C       9.58       1.45       4.19
C       8.55       0.69       3.63
C       7.50       1.33       9.99
C       7.50       1.02       8.62
C       8.54       1.53       7.79
C       6.48       0.21       8.03
C       6.49      -0.08       6.69
C       7.52       0.43       5.83
C       8.55       1.24       6.39
C       7.53       0.18       4.45
C       8.55       2.08      10.54
