47

C       3.56       3.34       6.30
C       8.27       6.86       3.99
C       8.93       1.27       3.49
Br       8.96       9.86      11.32
N       7.12       5.95       6.46
N       7.15       6.88       7.37
N       4.90       7.49       6.84
N       4.88       6.57       5.90
N       3.67       4.17       5.08
H       4.14       2.43       3.12
N       8.25       5.45       3.69
H       4.23       9.65       7.99
N       8.66       2.70       3.44
H       4.42      11.46       9.69
H       8.10       8.18       9.17
O       5.20      12.39      11.76
O       7.47      12.44      11.77
H       3.54       5.15       5.35
H       2.57       3.52       6.74
H       4.33       3.58       7.05
H       3.65       2.28       6.04
O       5.10       1.17       1.42
O       7.36       1.28       1.27
H       9.09       5.07       3.28
H       8.64       7.07       5.01
H       7.26       7.28       3.89
H       8.94       7.35       3.27
H       9.33       3.28       3.99
H       9.65       1.09       4.30
H       9.35       0.91       2.55
H       8.01       0.72       3.70
C       6.35      11.98      11.38
C       5.00       3.00       3.44
C       4.89       4.02       4.35
C       6.03       4.86       4.60
C       7.24       4.56       3.92
C       7.41       3.22       3.39
C       6.25       2.58       2.91
C       6.07       7.70       7.50
C       6.02       5.86       5.65
C       5.12       9.73       8.61
C       5.23      10.74       9.55
C       6.35      10.87      10.38
C       7.39       9.93      10.22
C       7.30       8.91       9.28
C       6.16       8.80       8.46
C       6.25       1.59       1.81
