34

H       4.51      11.48       0.64
H       1.40       8.37       0.09
H       4.39      13.38      -0.93
H       1.47       6.56       1.79
H       1.81      11.06      -3.49
H       5.59       7.46       2.58
H       3.63       7.63      -2.00
H       3.27       8.28      -3.64
H       2.21       7.02      -2.91
H       7.02       9.07       2.48
H       5.88      10.45       2.70
H       7.28      10.58       1.57
C       3.03      13.47      -3.29
C       3.58       5.84       3.33
C       3.94      11.37      -0.28
C       2.32       8.18       0.64
C       3.86      12.45      -1.15
C       2.35       7.16       1.59
C       3.08      12.35      -2.31
C       3.53       6.91       2.30
C       2.42      11.16      -2.59
C       4.67       7.68       2.05
C       2.57      10.05      -1.76
C       4.63       8.73       1.12
C       3.33      10.13      -0.56
C       3.44       9.00       0.39
C       2.82       7.90      -2.71
C       6.52       9.91       1.97
O       4.16      13.95      -3.64
O       2.45       5.42       3.76
O       1.89      13.85      -3.71
O       4.72       5.43       3.72
O       1.94       8.88      -2.14
O       5.74       9.49       0.85
