48

N      -2.25      23.71      14.11
O      -4.00      35.46      18.80
H      -0.04      24.32      16.31
O      -2.41      35.86      20.32
H      -0.17      26.80      16.65
O       0.04      34.77      19.97
H       0.56      28.91      16.80
O      -6.90      20.59      11.00
H       1.14      30.94      17.35
O      -5.34      19.00      10.96
H       1.21      32.93      18.62
O      -2.87      19.53      11.87
H      -3.50      33.70      17.27
H      -2.19      31.93      16.13
H       0.66      29.10      13.09
H       0.21      27.09      11.71
H      -0.39      24.93      12.76
H      -2.47      24.69      13.98
H      -1.58      21.27      13.18
H      -6.24      22.61      12.17
H      -4.76      24.19      13.42
C      -1.31      23.41      15.06
C      -0.30      25.71      14.78
C      -0.06      26.86      15.56
C       0.27      28.08      14.96
C       0.08      30.49      15.64
C      -0.41      32.30      17.31
C       0.17      33.08      18.32
C      -0.56      34.08      18.99
C      -1.93      34.29      18.60
C      -2.46      33.51      17.56
C      -1.74      32.52      16.92
C      -2.82      35.25      19.25
C       0.39      28.16      13.56
C       0.12      27.03      12.80
C      -0.22      25.81      13.38
C      -3.08      22.81      13.40
C      -2.60      21.58      12.98
C      -3.42      20.69      12.26
C      -4.77      21.07      11.98
C      -5.21      22.34      12.40
C      -4.39      23.22      13.09
C      -5.72      20.20      11.28
S      -1.07      21.95      15.80
S      -0.59      31.12      14.27
N      -0.56      24.51      15.46
N       0.46      29.18      15.82
N       0.34      31.23      16.79
