13

C      12.37       3.16       3.15
O       8.76       2.10       1.35
O       8.76       0.12       2.49
H      10.71      -0.19       3.99
H      12.92       0.50       5.00
H      10.71       3.55       1.83
H      12.92       4.08       2.93
C       9.25       1.26       2.19
C      10.53       1.65       2.85
C      11.16       0.78       3.75
C      12.37       1.14       4.31
N      12.96       2.32       4.03
C      11.16       2.86       2.55
