36

H       9.53       7.66      18.25
H       5.79       9.85      20.68
H       7.63      10.83      13.86
H       7.80       6.61      25.04
H       7.87       6.59      16.45
H       7.44      10.90      22.53
H       7.94       6.54      13.94
H       7.41      10.90      25.04
C       7.62       8.74      26.69
C       7.82       8.67      12.26
C       7.67       9.90      14.42
C       7.73       7.55      24.49
C       7.62       9.91      15.81
C       7.73       7.58      23.11
C       7.69       8.73      16.57
C       7.64       8.76      22.37
C       7.83       7.52      15.87
C       7.51       9.96      23.09
C       7.87       7.49      14.48
C       7.49       9.97      24.48
C       7.79       8.68      13.75
C       7.61       8.76      25.19
C       8.69       8.13      18.77
C       6.63       9.39      20.16
C       8.67       8.14      20.16
C       6.66       9.38      18.78
C       7.65       8.75      20.89
C       7.67       8.76      18.04
O       7.86       7.62      27.24
O       7.82       9.81      11.69
O       7.41       9.84      27.31
O       7.85       7.54      11.67
F       9.71       7.57      20.82
F       5.62       9.95      18.11
F       7.54      11.10      16.45
F       7.80       6.39      22.45
