78

H       4.63       3.30      11.80
H       2.82      -3.08       8.48
H       4.49       3.24       7.50
H       6.45      -2.98      10.77
H       6.32       4.27      13.05
H       7.32       5.26      11.96
H       6.80       5.91      13.53
H       5.41       6.94      11.81
H       4.39       5.85      12.75
H       1.29      -4.47       7.50
H       2.61      -4.00       6.40
H       1.69      -5.48       6.10
H       3.89      -6.07       7.06
H       2.63      -6.56       8.15
H       3.87       4.28       5.72
H       2.38       4.70       6.60
H       3.01       5.78       5.34
H       3.54       6.79       7.49
H       5.04       6.28       6.76
H       7.94      -4.08      11.88
H       6.51      -4.24      12.93
H       7.80      -5.45      12.99
H       5.91      -6.40      11.76
H       7.25      -6.22      10.66
H       1.23       1.43       9.68
H       2.01       3.00       9.43
H       0.71       2.48       8.34
H       2.89       2.16       7.20
H       2.05       0.65       7.45
H       3.26      -1.15      12.69
H       3.83      -2.73      12.13
H       4.29      -2.15      13.74
H       6.23      -1.82      12.20
H       5.60      -0.32      12.81
H       7.89       1.28       9.64
H       7.15       2.88       9.78
H       8.43       2.40      10.90
H       6.24       2.22      12.06
H       7.02       0.67      11.91
H       5.81      -1.10       6.55
H       5.30      -2.69       7.13
H       4.76      -2.12       5.54
H       2.87      -1.83       7.14
H       3.46      -0.31       6.52
C       4.82       5.16      10.77
C       3.84      -4.92       8.80
C       4.44       5.14       8.46
C       5.61      -4.89      10.33
C       4.65       3.78      10.82
C       3.67      -3.55       8.96
C       4.52       3.75       8.46
C       5.64      -3.49      10.27
C       4.57       3.02       9.65
C       4.62      -2.77       9.64
C       3.75       0.82       8.73
C       5.12      -0.56      10.75
C       5.34       0.83      10.59
C       3.99      -0.56       8.58
C       4.57      -1.29       9.66
C       4.55       1.54       9.66
C       5.23       5.89      12.03
C       6.48       5.29      12.68
C       3.11      -5.67       7.72
C       2.12      -4.86       6.90
C       4.11       5.90       7.20
C       3.31       5.11       6.16
C       6.52      -5.64      11.26
C       7.23      -4.80      12.32
C       2.59       1.45       7.98
C       1.58       2.13       8.92
C       5.36      -1.15      12.13
C       4.11      -1.84      12.70
C       6.52       1.45      11.33
C       7.55       2.04      10.35
C       3.73      -1.14       7.19
C       4.97      -1.81       6.58
N       4.66       5.85       9.61
N       4.76      -5.60       9.55
