14

O      19.54       3.80      15.82
C      19.62       5.03      15.48
O      16.56       9.96      11.14
O      15.75       7.83      10.89
H      18.32       4.56      13.79
C      18.77       5.40      14.33
C      18.49       6.67      13.99
O      20.33       5.93      16.03
H      18.95       7.48      14.57
C      17.61       7.03      12.91
H      17.14       6.24      12.33
C      17.34       8.32      12.59
H      17.79       9.14      13.14
C      16.48       8.72      11.46
