34

O       1.74      10.45      11.57
H       2.43       3.77       5.55
H       2.51       8.43      10.28
O      -0.48       1.31       1.28
H      -1.29       5.26       3.95
O       1.79       1.28       1.36
H      -1.26       3.44       2.23
H       3.00      -0.19       4.12
O       3.92       1.94       4.01
O       2.24       0.43       4.11
H      -1.37       9.95       9.28
H      -3.02       7.62       5.97
O      -2.59       9.53       7.12
O      -2.18       7.42       6.43
H       2.38       6.83       8.36
C       0.60      10.16      11.10
C      -0.47       4.55       3.91
C      -0.45       3.54       2.95
C       0.61       2.62       2.90
C       1.64       2.70       3.86
C       1.63       3.72       4.81
C       0.58       4.66       4.84
C       0.56       5.68       5.82
C       0.45       6.55       6.66
C      -0.63       8.41       7.97
C      -0.55       9.27       9.07
C       0.56       9.26       9.91
C       1.64       8.40       9.64
C       1.56       7.53       8.57
C       0.43       7.49       7.72
C       0.64       1.65       1.77
C       2.73       1.69       3.97
C      -1.87       8.53       7.14
O      -0.53      10.53      11.55
