16

C       3.52       7.94       0.18
C       0.93       7.07      -0.18
O       3.85       7.20      -3.36
H       4.54       8.28       0.31
O       0.59       7.82       3.36
H      -0.10       6.73      -0.31
O       5.21       8.28      -1.96
C       4.09       7.71      -2.20
O      -0.76       6.73       1.96
C       0.35       7.30       2.20
O       1.19       6.85      -2.51
C       3.09       7.60      -1.11
O       3.26       8.17       2.51
C       1.36       7.41       1.11
C       1.74       7.16      -1.31
C       2.70       7.85       1.31
