10

O       9.80       4.40       5.95
O      14.69       5.01       5.10
H      12.37       7.31       5.56
H      12.32       4.22       5.45
O      14.89       7.07       6.07
O       9.95       6.40       4.86
C      12.75       6.29       5.50
C      11.92       5.23       5.43
C      10.45       5.36       5.42
C      14.22       6.10       5.56
