24

N       6.59       3.73       9.87
N       4.48       1.33      11.70
N       0.32      -0.52      13.88
C       7.81       3.25      10.15
H       8.66       3.80       9.73
C       7.98       2.11      10.93
C       5.59       1.98      11.15
C       5.49       3.13      10.34
H       4.53       3.56      10.10
H       8.98       1.73      11.13
C       6.86       1.46      11.43
H       6.96       0.57      12.06
H       4.72       0.59      12.39
C       3.16       1.66      11.52
C       2.20       0.86      12.34
C       2.35      -0.51      12.58
C       1.08       1.52      12.86
H       3.19      -1.08      12.19
C       1.38      -1.15      13.35
H       0.94       2.58      12.67
C       0.17       0.80      13.63
H      -0.71       1.27      14.07
O       2.75       2.56      10.77
H       1.45      -2.21      13.57
