44

O       1.05      13.61      18.10
O       2.87      12.95      16.96
H       3.14      11.18      16.25
H       2.99       9.47      16.20
H       0.78      13.34      19.99
H       0.93      12.52      21.49
H       0.69       9.16      22.17
H      -0.12      10.60      21.89
H       3.23       7.20      18.77
H       4.04       8.17      17.67
H       0.69       5.38      19.82
H      -0.12       3.95      20.11
H       3.23       7.35      23.22
H       4.04       6.38      24.32
H       3.14       3.37      25.75
H       2.99       5.08      25.79
H       0.78       1.21      22.00
H       0.93       2.03      20.50
C       1.96       1.81      24.15
C       1.96      12.74      17.84
C       1.96      11.47      18.57
C       2.58      10.32      18.00
C       2.58       9.11      18.71
C       1.96       9.03      19.98
C       1.35      10.17      20.55
C       1.35      11.39      19.86
C       1.96       7.81      20.69
C       1.96       6.74      21.30
C       1.96       5.52      22.01
C       1.35       4.38      21.44
C       1.34       3.16      22.13
C       1.96       3.08      23.42
C       2.57       4.23      23.99
C       2.57       5.44      23.28
N       3.19      10.30      16.75
N       0.73      12.46      20.50
N       0.79      10.12      21.84
N       3.13       7.97      18.11
N       0.79       4.42      20.15
N       3.13       6.58      23.89
N       3.19       4.25      25.24
N       0.73       2.09      21.50
O       1.05       0.93      23.89
O       2.87       1.60      25.04
