15

O       6.38       6.93       1.84
O       5.78       4.08       2.37
O       5.36       5.25      -2.47
H       6.99       7.76       0.09
H       3.88       3.15       0.34
O       3.90       5.38       2.29
O       6.66       7.09      -2.15
H       3.52       4.27      -1.01
H       4.98       3.30      -1.07
C       6.44       6.96       0.61
C       4.32       3.85      -0.38
C       5.79       5.96      -0.26
C       5.07       4.95       0.31
C       4.94       4.85       1.81
C       5.94       6.11      -1.73
