22

H       3.56       9.85      17.04
H       7.74       8.62      14.99
H       9.55       9.85      13.89
C       5.48      14.01      16.39
C       5.52      12.52      16.20
C       4.42      11.80      16.65
C       6.63      11.83      15.61
C       7.72      12.50      14.99
C       8.74      11.81      14.38
O       4.34       7.65      16.46
O       6.61       7.61      16.53
H       3.56      12.35      17.04
H       7.74      13.58      14.99
O       4.34      14.56      16.46
O       6.61      14.60      16.53
H       9.55      12.36      13.89
C       5.48       8.20      16.39
C       5.52       9.69      16.20
C       4.42      10.40      16.65
C       6.63      10.38      15.61
C       7.72       9.71      14.99
C       8.74      10.40      14.38
