32

O       4.66       4.95      22.69
O       1.72      -4.94      34.25
H       4.92      -2.93      33.23
H       1.52       4.38      24.99
H       1.11      -2.40      30.09
H       5.31       1.32      25.91
H       0.92      -3.97      32.04
H       5.50       3.03      24.09
C       3.53       4.71      23.23
C       2.87      -4.56      33.85
C       4.08      -2.81      32.55
C       2.35       3.71      25.19
C       4.16      -1.89      31.51
C       2.27       2.81      26.25
C       3.10      -1.76      30.58
C       3.32       1.89      26.48
C       1.94      -2.52      30.80
C       4.49       2.01      25.70
C       1.83      -3.39      31.87
C       4.59       2.95      24.68
C       2.92      -3.57      32.73
C       3.50       3.78      24.39
C       3.25       0.79      27.45
C       3.17      -0.93      29.37
N       2.01      -0.60      28.76
N       4.41       0.21      27.83
N       2.05       0.24      27.75
N       4.37      -0.70      28.78
Cl       5.56      -0.87      31.47
Cl       0.88       2.90      27.27
O       3.99      -4.94      34.32
O       2.40       5.17      22.84
