46

H       1.01       1.10       2.62
H       0.91      -0.96       1.28
H       3.25      -3.00       4.29
H       3.25      -1.51       0.45
H       1.01      -5.01      -2.26
H       0.90      -5.14       0.19
H       3.25      -5.58       1.08
H       1.01      -6.18       5.46
H       0.90      -3.99       4.35
C       2.23      -3.18      -3.81
C       2.23      -8.43       4.66
C       2.23       1.52       4.97
C       1.50       0.19       2.99
C       1.43      -0.98       2.24
C       2.05      -2.16       2.69
C       2.74      -2.12       3.90
C       2.78      -0.95       4.65
C       2.17       0.23       4.22
C       2.74      -2.29      -0.11
C       2.78      -2.23      -1.50
C       2.16      -3.18      -2.30
C       1.50      -4.23      -1.66
C       1.43      -4.30      -0.27
C       2.05      -3.32       0.53
C       2.74      -5.68       2.04
C       2.78      -6.91       2.67
C       2.16      -7.13       3.91
C       1.50      -6.05       4.50
C       1.43      -4.81       3.86
C       2.05      -4.61       2.61
N       1.98      -3.36       1.94
N       3.50      -1.00       5.93
N       3.50      -1.09      -2.10
N       3.50      -8.00       1.99
O       3.23       2.26       4.70
O       3.23      -3.79      -4.31
O       3.23      -8.57       5.43
O       1.25       1.81       5.72
O       1.25      -9.22       4.53
O       1.25      -2.68      -4.42
O       3.30      -0.07       6.72
O       4.25      -1.97       6.14
O       3.30      -0.87      -3.30
O       4.25      -0.42      -1.37
O       3.30      -9.15       2.40
O       4.25      -7.70       1.05
