39

C      10.13       0.73      10.91
C      11.28       0.36      10.05
H      11.51      -0.70      10.01
C      11.98       1.25       9.33
H      11.67       2.30       9.36
C      13.13       0.86       8.48
C      13.04       0.96       7.08
H      11.60       1.08       5.47
C      14.14       0.53       6.29
H      10.90       1.21       7.10
C      15.28      -0.04       6.91
H      11.77       2.58       6.39
C      15.34      -0.16       8.31
H      16.36      -0.27       5.03
O       9.98       1.96      11.23
C      14.29       0.35       9.11
H      17.39      -0.07       6.45
O       9.37      -0.23      11.27
C      11.77       1.48       6.48
O      13.91       2.66       1.97
H      16.58      -1.61       6.19
O      13.97       0.38       2.03
C      16.45      -0.52       6.09
H      13.97       1.38      10.98
C      14.42       0.44      10.61
H      13.89      -0.38      11.12
O      18.58      -2.39      10.22
C      14.09       0.57       4.83
H      15.47       0.40      10.91
O      16.94      -3.71      11.07
H      14.47      -0.30       4.29
C      13.66       1.58       4.04
H      13.31       2.53       4.45
C      13.84       1.53       2.58
C      16.46      -0.89       8.92
H      17.48      -0.70       8.57
C      16.29      -1.85       9.85
H      15.29      -2.13      10.17
C      17.36      -2.70      10.42
