24

N       9.49      20.53       7.81
H       8.45      16.95       9.61
N       1.56      12.60       7.81
H       5.91      19.49       6.02
O       6.23      15.86       8.81
O       4.81      17.28       6.81
H       2.60      16.18       6.01
H       5.14      13.64       9.61
C       8.38      18.72       8.31
C       7.68      19.43       7.31
C       2.66      14.41       7.31
C       3.37      13.71       8.31
C       7.91      17.51       8.84
C       6.46      18.96       6.79
C       3.13      15.63       6.79
C       4.58      14.18       8.84
C       6.72      17.05       8.32
C       6.00      17.76       7.31
C       4.33      16.09       7.30
C       5.04      15.37       8.32
N       9.50      19.45       8.59
N       8.40      20.55       7.03
N       1.54      13.69       7.03
N       2.64      12.59       8.59
