12

C      13.76       8.67       7.74
C      20.12       9.09       7.82
C      14.99       8.75       7.76
C      18.89       9.02       7.80
C      16.32       8.84       7.77
C      17.55       8.93       7.79
O      11.77       9.81       7.86
O      22.11       7.95       7.69
O      11.75       7.54       7.60
O      22.13      10.23       7.96
C      12.31       8.66       7.73
C      21.56       9.10       7.82
