20

H       4.63      -1.54      13.97
H       8.71      -3.24      11.71
H       4.42      -3.03      11.98
H       8.92      -1.75      13.70
C       6.93       0.83      17.27
C       6.40      -5.61       8.41
C       5.40      -2.75      12.37
C       7.94      -2.03      13.32
C       6.55      -3.24      11.72
C       6.78      -1.55      13.96
C       7.82      -2.87      12.21
C       5.51      -1.92      13.47
C       6.46      -4.08      10.58
C       6.88      -0.70      15.10
C       6.93       0.02      16.08
C       6.41      -4.80       9.60
O       5.79       1.19      17.70
O       7.55      -5.97       7.98
O       8.07       1.08      17.79
O       5.27      -5.87       7.89
