16

C       3.81       2.90       5.75
F       4.15       2.70       7.04
O       6.97       1.36       0.69
O       8.14       0.85       2.59
C       4.88       2.45       2.35
S       2.53       3.60       3.60
C       6.05       1.86       2.79
C       4.07       2.84       3.43
S       6.19       1.77       4.52
C       4.65       2.52       4.68
C       2.63       3.50       5.33
H       4.65       2.58       1.29
C       1.53       4.02       6.14
O       0.58       4.60       5.49
O       1.59       3.86       7.40
C       7.13       1.32       1.96
