38

H       3.56      12.52       1.15
H       9.71       9.55      -1.15
H       8.73      11.36      -5.36
H       4.54      10.70       5.36
H       3.69      12.13       3.51
N       7.68       8.73       2.71
H       9.57       9.93      -3.50
N       5.59      13.34      -2.70
H       4.44      12.34      -1.11
H       8.83       9.73       1.11
O       5.83      13.84      -5.38
O       7.44       8.22       5.38
O       7.99      13.58      -5.95
O       5.27       8.48       5.95
H       5.46      13.98      -3.48
H       5.51      13.73      -1.77
H       7.76       8.34       1.78
H       7.82       8.08       3.48
C       6.98      13.29      -5.23
C       6.29       8.78       5.23
C       6.07       9.77       4.17
C       7.20      12.29      -4.16
C       4.55      11.47       3.36
C       8.72      10.59      -3.36
C       5.01      10.69       4.38
C       8.26      11.38      -4.38
C       6.72       9.69       2.91
C       6.55      12.37      -2.90
C       6.31      10.59       1.84
C       6.96      11.48      -1.84
C       5.15      11.39       2.08
C       8.12      10.67      -2.08
C       6.95      10.68       0.54
C       6.32      11.39      -0.54
C       5.04      11.97      -0.28
C       8.23      10.09       0.29
C       4.52      12.03       0.98
C       8.75      10.03      -0.98
