28

O      -2.10       5.27       9.19
O       2.17       5.44       5.82
O       0.15       8.83       6.47
H      -1.99       5.45       6.13
H       2.07       5.26       8.89
H      -0.09       3.35       6.07
H       0.17       7.36       8.94
H      -3.37       6.56       8.14
H      -2.41       7.33       9.44
H      -3.76       6.22       9.86
H       2.48       3.38       5.58
H       3.45       4.15       6.88
H       3.84       4.49       5.15
C       0.04       6.49       6.76
C      -0.03       4.25       6.70
C       0.11       6.47       8.32
C       0.04       7.69       5.89
C       0.04       3.02       9.12
C      -1.09       5.39       6.75
C       1.17       5.32       8.27
C      -2.96       6.42       9.15
C       3.03       4.29       5.86
C      -1.03       5.37       8.33
C       1.11       5.34       6.69
C       0.04       4.22       8.25
O      -0.07       1.88       8.55
O      -0.08       7.48       4.63
O       0.16       3.23      10.38
