28

H      11.93       7.74      17.88
H      14.42       7.49      18.00
H      14.70      10.79      15.22
H      18.91       7.48      18.28
H      21.62      10.13      15.16
H      19.12      10.31      15.01
C      12.59       8.39      17.31
C      13.97       8.26      17.38
C      14.77       9.13      16.61
C      14.12      10.10      15.82
C      12.72      10.18      15.81
C      16.18       9.04      16.62
C      17.40       8.97      16.63
C      18.81       8.90      16.65
C      19.48       8.08      17.57
C      20.87       8.03      17.59
C      20.97       9.56      15.83
C      19.59       9.66      15.75
C      12.03      11.24      15.01
C      21.59       7.14      18.55
H      12.68      11.64      14.23
H      11.10      10.85      14.57
H      11.74      12.07      15.67
H      21.82       6.17      18.07
H      22.55       7.57      18.85
H      20.97       6.94      19.43
N      11.98       9.32      16.55
N      21.60       8.78      16.73
