18

C      11.94      -0.90       4.18
O      11.32       0.56       1.43
C      11.92      -1.30       2.83
C      12.69      -2.39       2.40
C      13.50      -3.06       3.31
C      14.31      -3.45       5.66
C      13.50      -2.69       4.66
C      11.10       0.23       4.66
O      15.26      -4.20       5.22
O      14.01      -3.29       6.89
H      10.43       0.69       3.90
O      11.12       0.64       5.81
H      12.71      -1.32       6.14
H      12.66      -2.69       1.36
H      14.12      -3.90       2.98
C      11.02      -0.63       1.82
C      12.72      -1.61       5.09
O      10.04      -1.32       1.41
