16

C       4.74       8.29       0.01
C       4.64       2.48       0.01
C       4.65       3.98       0.01
C       4.74       6.80       0.01
C       3.48       4.75       0.02
C       5.93       6.06       0.01
C       3.51       6.14       0.02
C       5.87       4.67       0.01
O       5.78       1.89       0.01
O       5.88       8.90       0.01
O       3.60       8.87       0.00
O       3.52       1.89      -0.00
H       6.88       6.58       0.01
H       2.58       6.71       0.02
H       6.78       4.08       0.01
F       2.25       4.17       0.03
