20

F       8.38      10.61       2.80
F       4.90      17.46      -0.71
C       7.57      11.25       1.94
C       7.56      12.64       1.93
C       5.74      16.82       0.12
C       5.76      15.43       0.11
H       8.22      13.16       2.62
H       5.08      14.91      -0.56
H       7.98      17.62       2.33
H       8.18      15.15       2.49
H       5.40      10.44      -0.35
H       5.22      12.91      -0.53
C       7.37      16.96       1.72
C       7.46      15.58       1.79
C       5.99      11.10       0.29
C       5.91      12.48       0.20
C       6.70      13.29       1.03
C       6.64      14.77       0.98
N       6.82      10.48       1.16
N       6.51      17.58       0.89
