32

C      16.38       7.85      21.07
C      17.56       8.29      21.76
C      18.79       8.36      21.03
C      17.55       8.65      23.11
C      18.92       7.04      17.00
H      20.83       9.46      23.57
H      22.09       9.22      21.44
H      22.18       8.57      19.07
H      16.62       8.61      23.68
H      15.45       7.79      21.64
H      15.51       7.18      19.24
C      21.43       7.41      16.91
H      16.80       6.79      17.17
O      17.74       5.95      15.28
O      19.93       6.35      14.94
O      17.58       9.59      25.78
O      19.84       9.77      25.70
H      21.63       6.45      16.39
O      22.29       8.29      16.92
C      18.72       9.49      25.18
C      20.12       7.51      17.60
C      20.08       8.01      18.93
C      19.98       8.79      21.69
C      18.86       6.42      15.65
C      21.20       8.86      20.93
C      21.25       8.49      19.62
C      19.93       9.13      23.05
C      18.73       9.06      23.75
C      17.71       7.11      17.69
C      17.64       7.54      19.02
C      18.84       7.98      19.66
C      16.41       7.51      19.75
