28

H      12.13       2.73       7.35
C      12.81       2.23       8.04
H      21.58       8.94       3.01
C      20.93       9.12       2.16
H      15.18       3.69       3.51
H      19.85       4.78       4.87
C      14.21       2.07       7.93
H      16.63       5.04       2.01
C      19.42       9.00       0.55
C      19.96       8.26       1.61
H      18.40       3.42       6.37
H      15.53       1.00       9.41
C      15.80       2.92       6.02
C      17.01       4.68       2.97
C      18.02       3.78       5.41
C      16.67       3.51       5.07
H      18.64       8.72      -0.14
N      12.37       1.65       9.17
C      18.32       5.05       3.36
N      20.95      10.29       1.49
N      13.45       1.10       9.82
C      16.20       3.93       3.81
C      18.82       4.53       4.57
N      20.01      10.22       0.49
C      19.03       6.03       2.63
C      15.06       2.52       6.90
C      19.52       7.02       2.10
C      14.55       1.34       9.09
