18

H      13.83      11.35      27.74
N      18.74       8.75      29.51
C      13.36      11.43      30.56
H      18.48       8.54      30.46
H      19.52       8.25      29.09
C      17.80       9.24      28.66
C      14.59      10.91      28.38
C      17.91       9.27      27.25
C      14.46      10.89      29.76
O      13.44      11.28      31.83
C      15.79      10.31      27.97
C      18.98       8.72      26.45
S      15.81      10.14      30.57
O      18.87       8.82      25.18
C      16.57       9.84      29.05
S      16.55      10.02      26.45
O      19.96       8.16      27.09
O      12.41      12.01      29.92
