16

C      15.06      15.60      10.30
O      20.18      18.05      13.61
O      14.82      16.21       9.22
Br      16.67      16.31      15.38
O      14.53      14.50      10.67
O      18.51      18.53      15.06
Br      14.23      15.56      13.38
Br      17.69      16.74       8.92
Br      19.43      18.66      10.87
C      17.96      17.42      13.03
C      16.07      16.23      11.25
C      16.85      16.70      13.52
C      18.96      18.05      13.97
C      15.87      16.20      12.65
C      18.10      17.53      11.63
C      17.23      16.86      10.76
