48

O       6.18      10.84      14.31
O       8.53       4.07      24.20
H       8.47       9.60      19.50
O       6.25       4.07      24.16
H       8.63       5.50      19.34
H       5.23       6.97      20.06
O       6.58       4.30      18.78
O       4.74       4.71      20.05
H       6.45       6.54      17.38
H       4.68       3.72      20.04
O       9.26       7.98      22.27
O       8.65      10.10      21.81
H       9.48      10.29      22.30
H       5.36       7.80      17.89
O       5.67       9.95      21.76
O       5.35       7.74      22.12
H       9.53       6.72      20.23
H       4.44       8.01      22.41
O      10.32       8.81      17.13
O      10.42       8.78      19.40
H      11.14       9.51      19.23
O       5.44      10.60      19.04
O       7.49      11.52      19.23
H       7.07      12.38      18.96
H      10.17       5.21      16.43
O       8.25       6.44      16.07
O      10.07       5.75      17.24
C       7.31      10.52      14.79
C       8.65       6.56      19.59
C       6.09       6.57      19.53
C       6.26       7.27      18.18
C       7.32       9.76      16.01
C       7.36       6.86      20.42
C       8.75       7.41      18.29
C       7.43       8.26      18.20
C       7.46       9.21      19.47
C       7.30       8.38      20.82
C       7.39       9.07      17.00
C       7.38       5.98      21.59
C       7.41       5.21      22.52
C       7.40       4.39      23.71
C       5.86       5.08      19.39
C       8.51       8.77      21.72
C       6.01       8.78      21.61
C       9.92       8.39      18.21
C       6.65      10.49      19.26
C       8.95       6.50      17.06
O       8.45      10.80      14.29
