16

C       0.61      23.73       4.48
C       1.82      25.66       7.50
C       1.82      24.82       6.26
C       3.03      24.45       5.67
O       0.68      22.42       2.03
C       3.03      23.73       4.48
H       3.96      24.75       6.14
O       0.68      25.98       7.98
C       1.82      23.37       3.87
C       1.82      22.68       2.54
H       3.96      23.44       4.00
H      -0.33      24.75       6.14
C       0.61      24.45       5.67
O       2.96      25.98       7.98
O       2.96      22.42       2.03
H      -0.33      23.44       4.00
