36

H      12.32       5.56       1.53
H      12.33       3.07       1.54
H       9.32       5.56      -1.53
H       9.31       3.07      -1.54
H      10.82       1.24      -2.15
H      10.82       1.24       2.15
H       9.32      -5.56       1.53
H       9.31      -3.07       1.54
H      12.32      -5.56      -1.53
H      12.33      -3.07      -1.54
H      10.82      -1.24       2.15
H      10.82      -1.24      -2.15
O      10.03       7.78      -0.82
O      11.61       7.78       0.82
O      11.61      -7.78      -0.82
O      10.03      -7.78       0.82
C      10.82       7.20       0.00
C      10.82      -7.20       0.00
C      10.82       5.71       0.00
C      11.66       5.00       0.87
C      11.65       3.61       0.87
C       9.98       5.00      -0.87
C       9.98       3.61      -0.87
C      10.82       2.89      -0.00
C      10.82       1.42      -0.00
C      10.81       0.70      -1.21
C      10.83       0.70       1.21
C      10.82      -5.71      -0.00
C       9.98      -5.00       0.87
C       9.98      -3.61       0.87
C      11.66      -5.00      -0.87
C      11.65      -3.61      -0.87
C      10.82      -2.89       0.00
C      10.82      -1.42      -0.00
C      10.81      -0.70       1.21
C      10.83      -0.70      -1.21
