40

H       2.27      16.71      13.11
H       1.75      12.42      13.11
H       1.75      16.71       3.71
H       2.27      12.42       3.71
H       0.69      12.70       9.22
H       3.34      16.43       9.22
H       3.34      12.70       7.60
H       0.69      16.44       7.60
C       2.01      14.57       2.04
C       2.01      14.57      14.78
C       2.01      14.57      13.29
C       2.17      15.77      12.59
C       2.15      15.79      11.19
C       2.01      14.57      10.46
C       1.88      13.35      11.19
C       1.86      13.37      12.59
C       2.01      14.57       9.03
C       2.01      14.57       7.79
C       2.01      14.57       6.36
C       1.88      15.79       5.63
C       1.86      15.77       4.23
C       2.01      14.57       3.53
C       2.16      13.37       4.23
C       2.15      13.35       5.63
C       1.78      11.97      10.60
C       2.25      17.17      10.60
C       2.24      11.97       6.22
C       1.78      17.17       6.22
O       1.07      15.20       1.46
O       2.96      13.94       1.46
O       1.07      13.94      15.36
O       2.96      15.20      15.36
O       1.01      11.82       9.49
O       2.34      11.03      11.12
O       3.01      17.32       9.49
O       1.69      18.11      11.12
O       3.01      11.82       7.33
O       1.68      11.03       5.70
O       1.01      17.32       7.33
O       2.34      18.11       5.70
