28

H      -6.13       3.47      13.40
H      -5.05       3.65      11.97
C      -0.83       0.28      15.88
H      -5.30       1.13      13.70
C      -1.81       0.71      14.96
C      -4.96       6.74      13.88
H      -2.75      -0.57      13.36
N      -0.58      -1.03      15.70
H      -5.93       6.27      13.86
N      -4.82       8.04      13.56
H      -1.74       7.28      14.19
H      -1.72       5.27      15.84
N      -3.49       8.35      13.67
H      -0.90       3.00      16.10
H      -0.32       0.83      16.67
N      -1.34      -1.48      14.66
Cl      -4.12       0.99      11.67
C      -3.71       6.18      14.21
C      -3.49       2.39      14.06
C      -2.36       2.05      14.82
C      -1.78       3.16      15.47
C      -2.24       4.47      15.31
C      -3.35       4.80      14.50
C      -3.96       3.69      13.92
C      -5.11       3.29      13.01
C      -2.08      -0.45      14.21
C      -2.82       7.26      14.07
C      -4.60       1.82      13.20
