10

O       0.24       1.28       1.34
C      -0.90       2.60       2.86
C      -0.89       3.44       3.75
C      -0.89       4.37       4.73
C      -0.89       5.22       5.61
C      -0.90       1.63       1.79
C      -0.86       6.21       6.66
O      -1.99       6.59       7.11
O       0.29       6.58       7.04
O      -2.05       1.25       1.39
