36

N       3.85       3.13       5.98
N       3.34       3.15       8.22
C       5.71       6.30       2.61
C       5.43       4.91       3.10
C       5.73       3.82       2.27
C       5.40       2.53       2.69
C       4.77       2.34       3.92
C       4.49       3.43       4.76
C       4.82       4.73       4.35
C       5.66       1.34       1.81
C       3.88       3.87       7.16
C       3.47       3.43       9.59
C       3.41       2.33      10.46
C       3.58       2.51      11.84
C       3.76       3.79      12.36
C       3.78       4.89      11.49
C       3.64       4.72      10.11
C       3.58       1.31      12.74
O       5.61       7.29       3.38
O       6.01       6.43       1.36
O       4.11       1.42      13.88
H       3.58       2.15       6.06
H       3.11       2.17       8.03
H       6.19       3.99       1.30
H       4.52       1.32       4.23
H       4.62       5.59       4.98
O       4.31       5.02       7.25
O       6.46       1.48       0.83
O       5.07       0.26       2.13
H       3.27       1.32      10.08
H       3.67       5.59       9.45
H       3.88       3.95      13.43
O       3.06       0.24      12.26
O       4.06       6.37      13.34
O       3.90       7.29      11.31
C       3.93       6.27      12.06
