20

H       5.04       9.68      14.78
H       5.30       9.70      17.26
H       5.10       5.39      17.30
H       4.85       5.38      14.82
C       4.84       7.43      10.56
C       5.20       8.75      16.72
C       5.05       8.75      15.34
C       5.22       7.54      17.44
C       5.30       7.49      21.52
C       4.92       7.53      14.64
C       5.09       6.33      16.74
C       4.95       6.32      15.36
C       5.33       7.54      18.86
C       4.81       7.51      13.22
C       4.76       7.47      12.01
C       5.38       7.51      20.07
O       4.63       8.53       9.95
O       5.51       8.59      22.13
O       5.13       6.30      10.04
O       5.01       6.36      22.04
