12

C      11.89       3.25      22.90
C      11.81       3.42      21.69
C      11.75       3.58      20.36
C      11.69       3.69      19.14
C      11.58       3.86      17.82
C      11.43       4.04      16.62
C      12.11       2.82      24.25
C      11.08       4.49      15.30
O      13.31       2.79      24.65
O      11.07       2.46      24.91
O       9.86       4.76      15.10
O      12.05       4.65      14.46
