28

C       5.16      10.16       6.64
C       6.19      10.17       7.60
C       6.31       9.13       8.51
C       5.04      11.29       5.67
H       7.26       4.19      14.09
H       7.39       5.82      12.21
O       4.21      11.14       4.71
O       5.77      12.32       5.88
H       3.65       7.23       7.51
H       3.47       9.10       5.86
H       6.88      11.01       7.62
H       7.11       9.13       9.25
H       3.74       4.20      10.58
O       6.17       2.49      15.50
O       4.32       1.56      14.55
H       3.63       2.57      12.46
C       5.31       2.38      14.57
C       5.43       3.30      13.40
C       6.50       4.20      13.32
C       6.57       5.11      12.27
C       5.56       5.13      11.28
C       4.51       4.19      11.34
C       4.45       3.28      12.39
C       5.56       6.12      10.27
C       5.50       7.01       9.43
C       5.40       8.05       8.48
C       4.36       8.05       7.52
C       4.26       9.09       6.61
