18

O      24.73      18.02       9.95
O      24.54      18.35      15.55
O      24.11      19.51      11.45
O      23.13      18.35      13.76
N      24.72      18.50      11.10
C      24.27      18.20      14.31
S      26.72      16.98      14.24
S      27.49      16.85      10.14
O      29.84      15.70       8.89
H      29.45      15.60      12.99
C      29.94      15.54      10.16
C      25.56      17.81      12.07
C      28.70      16.05      12.34
C      25.39      17.77      13.45
C      28.83      16.08      10.96
C      27.49      16.66      12.73
C      26.74      17.15      11.65
O      30.88      14.97      10.80
