48

C       9.19       1.22      14.12
C       9.32      -1.21      14.10
C       8.76       2.51       7.92
C       7.56       3.20       7.66
C       7.28       4.41       8.29
C       8.21       4.97       9.17
C       9.42       4.30       9.42
C       9.68       3.08       8.81
C       9.98      -2.42       7.93
C       9.25      -3.60       7.68
C       9.58      -4.79       8.32
C      10.65      -4.83       9.21
C      11.39      -3.67       9.46
C      11.05      -2.48       8.83
O       9.27      -1.15      16.87
O       9.24       1.13      16.88
H       9.13       2.16      14.66
H       9.37      -2.16      14.64
O       9.17       1.13       3.06
H       8.78       2.10       5.26
O       9.28      -1.14       3.07
H       9.75      -2.08       5.28
H       6.83       2.76       6.98
H       6.34       4.92       8.10
H       8.00       5.92       9.67
H      10.15       4.73      10.11
H      10.62       2.56       9.00
F       9.14       2.38      12.07
H       8.40      -3.56       6.99
F       9.41      -2.35      12.04
H      12.24      -3.70      10.14
H      11.64      -1.57       9.02
C       9.25      -0.01      16.30
H      10.92      -5.77       9.71
H       8.99      -5.69       8.13
C       9.25      -0.00      14.81
C       9.27       0.02      11.97
C       9.30       0.03      10.57
C       9.35       0.04       9.35
C       9.05       1.24       7.22
C       9.63      -1.17       7.23
C       9.00       1.20       5.83
C       9.54      -1.16       5.83
C       9.24       0.01       5.13
C       9.37       0.05       7.93
C       9.23      -0.00       3.64
C       9.20       1.20      12.74
C       9.33      -1.18      12.72
