16

S      21.95      13.49      18.27
S      21.17      13.69      22.37
C      24.38      12.20      18.27
C      23.14      12.74      20.48
O      25.36      11.65      18.87
O      24.23      12.33      17.00
C      18.74      14.98      22.38
C      19.97      14.44      20.17
C      23.29      12.73      19.09
C      19.83      14.44      21.55
C      21.18      13.82      19.78
Cl      24.23      12.09      21.62
Cl      18.88      15.08      19.02
C      21.93      13.36      20.87
O      17.76      15.52      21.77
O      18.88      14.85      23.65
