27

Br      12.94       1.88       7.75
Br      14.88      -4.48       2.98
N      11.49       2.79       5.18
O      14.27      -4.00       6.12
O      15.64      -2.19       6.24
H      12.90      -3.01       1.41
H      11.18       1.16       3.10
H      13.93      -0.69       6.80
C      11.18      -1.02       1.52
O      10.07      -0.55       1.93
O      11.44      -1.28       0.27
C      14.68      -2.87       5.72
H      11.79       3.29       6.01
H      10.68       4.55       4.43
H      10.06       3.07       3.64
H      11.70       3.66       3.26
C      11.79       0.76       3.90
C      11.99       1.52       5.05
C      12.74       0.93       6.11
C      13.34      -0.30       5.98
C      13.23      -1.04       4.77
C      12.38      -0.52       3.73
C      12.22      -1.31       2.54
C      12.99      -2.45       2.34
C      13.84      -2.92       3.35
C      13.93      -2.26       4.58
C      10.96       3.55       4.07
