19

H       5.56       0.76      13.14
H       1.29       0.90      12.83
H       5.45      -1.75      13.08
H      -0.01      -0.91      12.61
H       0.67      -2.45      11.99
H       0.46      -2.22      13.73
C       3.44       2.47      13.02
C       3.36      -3.33      13.02
C       3.31      -1.83      12.98
C       3.42       0.98      12.99
C       2.11      -1.09      12.90
C       4.61       0.23      13.07
C       2.20       0.30      12.90
C       4.54      -1.15      13.05
C       0.73      -1.70      12.80
O       4.56       3.05      13.24
O       2.33       3.06      12.81
O       2.25      -3.97      13.12
O       4.51      -3.88      12.95
