18

H      18.66       9.05       2.16
H      18.36      14.11       5.99
C      18.58       9.78       3.93
C      18.44      13.38       4.23
C      18.51       9.65       5.32
C      18.51      13.51       2.84
O      18.64      14.55       0.76
C      18.47      12.02       4.62
S      18.41      11.19       6.13
S      18.61      11.97       2.02
C      18.52       8.44       6.13
O      18.63       7.32       5.52
O      18.43       8.61       7.40
O      18.39      15.84       2.63
C      18.55      11.14       3.53
O      18.36      14.44       5.08
O      18.65       8.72       3.08
C      18.51      14.72       2.03
