16

C      25.61      17.80      12.10
O      24.52      18.20      15.55
C      25.51      17.78      13.48
C      28.80      16.10      12.34
C      27.61      16.71      12.76
C      26.81      17.18      11.68
O      23.44      18.87      13.65
C      28.91      16.11      10.96
C      24.41      18.33      14.28
H      24.85      18.23      11.45
S      26.86      17.03      14.28
S      27.56      16.86      10.16
H      29.57      15.67      12.98
O      29.90      15.70       8.88
C      30.01      15.57      10.16
O      30.98      15.02      10.79
