36

H       3.13      37.44      18.39
H       0.84      39.27      21.55
H       0.84      33.67      20.56
H       3.12      35.50      23.73
H       3.53      40.47      16.53
H       3.96      38.82      16.71
H       0.43      42.39      19.86
H       0.00      41.40      21.20
H       0.43      30.55      22.25
H       0.00      31.53      20.91
H       3.53      32.47      25.59
H       3.96      34.12      25.40
C       1.98      30.99      24.22
C       1.98      41.95      17.89
C       1.98      40.68      18.62
C       2.66      39.53      18.10
C       2.61      38.31      18.79
C       1.98      38.23      20.04
C       1.35      39.35      20.59
C       1.31      40.56      19.89
C       1.98      37.00      20.75
C       1.98      35.94      21.36
C       1.98      34.71      22.07
C       1.35      33.59      21.52
C       1.31      32.37      22.22
C       1.98      32.26      23.49
C       2.65      33.41      24.02
C       2.61      34.63      23.32
N       3.28      39.55      16.87
N       0.69      41.63      20.49
N       0.69      31.30      21.62
N       3.27      33.39      25.25
O       1.06      30.11      23.98
O       2.90      30.76      25.10
O       1.06      42.82      18.14
O       2.90      42.17      17.01
