16

C      13.30      22.42       1.25
O      14.16      21.62       0.76
C      12.83      27.62      -1.25
O      11.97      28.42      -0.76
C      13.18      23.77       0.61
O      12.52      22.19       2.23
C      12.95      26.27      -0.61
O      13.61      27.85      -2.23
C      12.27      24.70       1.11
H      11.66      24.44       1.97
C      13.86      25.33      -1.11
H      14.47      25.60      -1.97
C      12.15      25.95       0.50
H      11.45      26.69       0.88
C      13.98      24.09      -0.50
H      14.68      23.35      -0.88
