23

O       3.15      17.99       8.50
O       1.84      16.17       8.52
H       2.53      15.07       6.16
H       0.62      17.60       1.83
H       2.36      17.85       1.58
H       2.25      20.00       2.89
H       0.52      19.74       3.16
H       3.71      18.51       7.87
C       1.86      19.71       6.47
C       2.17      14.70       3.49
C       2.11      15.98       4.25
C       1.97      18.42       5.75
C       1.84      17.20       3.64
C       2.23      17.18       6.39
C       1.80      18.39       4.37
C       2.32      16.00       5.64
C       1.55      17.90       2.32
C       1.49      19.24       3.15
C       2.39      17.05       7.88
O       2.75      20.59       6.21
O       0.87      19.91       7.27
O       3.11      13.89       3.75
O       1.24      14.50       2.63
