26

H       5.00       1.03       9.13
C       8.17      -2.75       9.40
H       4.99      -0.84      10.53
H       9.06      -3.31       9.09
H       5.03       3.52       9.17
H       9.08       3.47      10.54
H       9.06       0.98      10.56
H       5.00      -3.34      10.48
C       5.90       2.95       9.48
C       8.17      -1.36       9.41
C       5.89       1.56       9.46
C       8.18       1.53      10.24
C       5.88      -1.38      10.19
C       8.19       2.92      10.24
C       5.88      -2.77      10.17
C       7.03      -3.47       9.78
C       7.06       3.65       9.86
C       7.02      -0.65       9.82
O       8.16      -5.54       9.56
O       5.97       5.73       9.62
O       8.20       5.72      10.07
O       5.94      -5.56      10.01
H       9.05      -0.82       9.08
C       7.04      -4.97       9.78
C       7.03       0.82       9.84
C       7.08       5.14       9.85
