20

C      16.86      11.06       4.79
C      20.05      12.00       3.32
C      16.74      12.36       5.32
C      20.18      10.71       2.78
C      18.84      12.12       4.06
C      18.09      10.94       4.07
S      18.09      13.40       4.93
S      18.82       9.67       3.17
H      16.19       9.12       4.71
H      15.16      10.26       5.54
H      20.94      13.79       3.77
H      21.82      12.75       2.69
N      15.93      10.08       4.90
N      20.94      13.02       3.12
C      15.66      12.87       6.13
C      21.27      10.19       2.00
O      14.68      12.07       6.38
O      15.76      14.09       6.53
O      21.20       8.96       1.64
O      22.24      11.00       1.72
