22

N      13.14       5.72       6.20
O      10.23       8.25       5.81
O       8.01       2.48       1.76
O      10.28       2.57       1.70
O       7.95       8.16       5.86
H       7.00       6.24       4.74
H      12.16       7.09       3.52
H      12.10       5.09       2.00
H      12.29       4.01       3.42
C      10.28       4.89       3.24
C       9.11       4.20       2.93
C       7.91       4.72       3.50
C       7.93       5.86       4.32
C       9.13       6.54       4.63
C      10.29       6.01       4.08
C      11.81       6.16       3.99
C      11.77       4.89       3.03
C       9.13       2.99       2.06
C       9.10       7.74       5.51
C       6.63       4.11       3.32
C      12.54       5.95       5.23
N       5.53       3.71       3.26
