13

O       8.82       6.07      13.01
H       8.92       2.99      12.64
N      10.48       4.01      13.66
C       9.60       3.84      12.49
H      11.26       2.99      15.31
O       8.45       4.11      15.41
C       9.15       3.05      15.53
O       7.99       5.06      11.20
C       8.75       5.07      12.21
O       8.88       2.12      16.34
H      10.17       3.60      11.58
C      10.39       2.93      14.64
H      10.40       1.94      14.16
