24

C       0.29       2.36      14.42
C      -0.29       2.36      13.20
H      -2.12       3.58      15.04
H       2.12       3.58      12.57
H       1.04       1.16      16.75
H      -1.04       1.15      10.87
N      -1.85       2.20      18.10
N       1.85       2.20       9.51
H      -3.30       3.39      17.25
H       3.31       3.39      10.36
H      -0.30       1.05      18.84
H       0.30       1.05       8.78
H       1.38       2.29      14.49
H      -1.38       2.29      13.12
C      -0.45       2.34      15.68
C       0.45       2.34      11.94
C      -1.69       2.98      15.85
C       1.69       2.98      11.77
C       0.07       1.65      16.78
C      -0.07       1.65      10.83
C      -2.35       2.90      17.06
C       2.35       2.90      10.55
C      -0.66       1.59      17.96
C       0.66       1.59       9.65
