30

H       0.77      17.52      19.77
H       4.71      20.46      26.13
H      -0.22      21.10      22.80
H       5.69      16.88      23.10
C       2.65      15.77      19.08
C       2.83      22.22      26.82
C       3.74      16.70      21.19
C       1.74      21.29      24.71
C       2.68      16.67      20.28
C       2.80      21.32      25.63
C       1.61      17.56      20.46
C       3.87      20.42      25.44
C       1.63      18.50      21.50
C       3.85      19.48      24.40
C       2.72      18.52      22.42
C       2.76      19.46      23.48
C       3.79      17.59      22.27
C       1.69      20.40      23.63
C       0.60      19.48      21.69
C       4.88      18.51      24.21
C       0.60      20.39      22.70
C       4.88      17.59      23.20
O       1.51      15.47      18.62
O       3.97      22.52      27.28
O       3.78      15.41      18.61
O       1.70      22.58      27.29
F       4.77      15.82      21.07
F       0.71      22.17      24.83
F      -0.43      19.46      20.80
F       5.91      18.52      25.10
