11

C      12.41       3.91      10.22
O      12.18       5.32      16.07
N      10.94       4.55      12.05
N      13.06       4.61      12.65
C      12.25       4.95      13.69
N      10.95       4.93      13.34
C      12.20       4.35      11.64
O      14.14       5.34      14.93
C      12.86       5.24      15.01
O      13.53       3.91       9.69
O      11.29       3.59       9.65
