27

C       2.05      10.02      15.00
H       4.44      11.92      16.52
O       0.64       8.65      13.60
C       3.32      10.67      15.19
O       2.66       9.12      12.87
H       0.46      10.92      17.89
C       3.49      11.41      16.39
H       0.10       9.61      15.82
C       2.48      11.52      17.35
O       4.39      14.58      22.76
C       1.24      10.86      17.14
O       2.55      15.78      22.21
H       0.74      13.25      18.51
O       4.31      10.63      14.34
H       5.12      13.13      20.83
C       1.05      10.13      15.99
H       4.73      11.65      18.87
C       2.70      12.34      18.56
O       0.91      14.85      20.49
C       1.70      13.19      19.02
C       1.91      14.03      20.12
C       3.16      13.99      20.81
C       4.16      13.12      20.33
C       3.95      12.31      19.22
C       3.40      14.83      22.00
H       1.28      15.42      21.23
C       1.77       9.25      13.79
