16

O       2.51       3.13       3.40
O      -1.35       0.50       9.06
O       0.78       1.92       2.55
O       0.37       1.70       9.91
H       2.23       3.62       5.80
H      -1.07       0.00       6.65
H      -0.30       0.51       4.30
H       1.46       3.11       8.15
C       1.46       2.39       3.51
C      -0.30       1.23       8.95
C       1.01       2.09       4.92
C       0.15       1.53       7.54
C       1.51       2.83       6.00
C      -0.35       0.79       6.45
C       0.08       1.07       5.16
C       1.08       2.55       7.30
