28

H       7.05       6.99      12.77
H       7.01       7.01      15.28
H       2.72       6.62      15.20
H       2.78       6.60      12.69
H       6.97       6.79      19.65
H       6.91       6.82      22.16
H       2.64       6.42      22.08
H       2.68       6.41      19.57
C       4.73       6.74      23.75
C       4.95       6.67      11.11
C       4.92       6.77      12.59
C       6.11       6.91      13.32
C       6.09       6.92      14.71
C       4.86       6.79      15.41
C       3.66       6.70      14.67
C       3.69       6.69      13.28
C       4.84       6.74      16.82
C       4.84       6.67      18.04
C       4.82       6.62      19.45
C       6.02       6.71      20.19
C       5.99       6.72      21.58
C       4.77       6.64      22.26
C       3.58       6.50      21.53
C       3.60       6.50      20.15
O       5.83       7.04      24.33
O       6.07       6.86      10.53
O       3.86       6.37      10.53
O       3.61       6.55      24.32
