10

C       3.68       4.96       8.36
C       2.42       5.67       6.08
C       2.30       4.95       8.27
C       3.81       5.64       6.16
H       4.20       4.69       9.27
H       1.90       5.98       5.18
H       1.67       4.63       9.10
H       4.45       5.91       5.31
N       1.68       5.32       7.14
N       4.43       5.30       7.29
