56

H       0.05      18.23       0.54
H       2.11      16.15       0.87
H       1.96      17.17      -1.83
H       0.02      14.52      -2.93
N       0.63      17.52       0.98
N       1.54      16.63      -1.08
N       0.79      15.15      -2.73
N      -1.01      17.36       2.60
H       3.86      17.58      -0.09
H       3.14      18.31       1.36
H       0.12      15.04      -5.25
H       3.44      15.85      -2.59
H       4.86      16.31      -4.56
H       1.73      19.80      -0.11
H       2.55      19.17      -1.54
H       4.77      19.90      -0.56
H       3.89      20.65       0.78
H       3.58      21.39      -2.19
H      -1.65      17.66       1.87
O       5.48      16.55      -6.89
O       3.86      15.98      -8.33
O       1.41      15.36      -7.42
O       0.93      16.12       2.77
O       0.14      14.89      -0.55
H       1.48      21.95      -0.91
H       2.37      23.43      -1.32
H       2.45      22.77       0.33
H       0.01      17.15       5.13
H      -3.50      16.54       2.67
H      -4.78      15.91       4.67
C       0.23      16.93       2.17
C       1.81      17.04       0.29
C       0.80      15.52      -1.37
C       1.66      15.44      -3.78
C       1.17      15.31      -5.08
C       1.97      15.52      -6.22
C       3.34      15.90      -6.01
C       3.81      16.03      -4.69
C       3.01      15.81      -3.58
C       4.28      16.16      -7.11
C       2.95      18.07       0.30
C       2.68      19.37      -0.46
C       3.81      20.38      -0.29
C       3.64      21.66      -1.12
C       2.42      22.50      -0.73
C      -1.66      16.92       3.77
C      -1.04      16.89       5.02
C      -1.76      16.54       6.19
C      -3.15      16.19       6.04
C      -3.73      16.21       4.77
C      -3.02      16.57       3.65
C      -4.02      15.81       7.15
H       4.55      22.28      -1.01
O      -5.21      15.40       6.94
O      -3.57      15.94       8.36
O      -1.14      16.58       7.38
