28

C       3.89       1.86       9.43
C       3.75       0.47       9.11
C       4.57      -0.10       8.10
C       2.81      -0.36       9.77
C       2.71      -1.69       9.41
H       7.93       0.53       4.94
C       4.39      -1.47       7.82
H       4.99      -1.99       7.06
H       3.24       2.29      10.19
H       9.04       2.77       4.62
H       9.25       5.17       5.33
H       6.31       4.77       8.19
H       2.01      -2.38       9.88
H       6.30      -0.86       6.11
H       4.88       3.68       9.03
H       2.17       0.05      10.55
N       7.78       5.01       6.80
N       3.50      -2.22       8.44
C       8.41       3.17       5.41
C       8.54       4.48       5.80
C       6.87       4.26       7.41
C       6.65       2.90       7.09
C       7.46       2.34       6.06
C       5.66       2.09       7.76
C       5.54       0.72       7.41
C       6.38       0.19       6.38
C       7.30       0.96       5.73
C       4.81       2.63       8.77
