16

C      20.90       6.96      10.38
Br      22.11      11.31      13.02
Br      23.55       5.08      11.37
O      24.55      10.61      14.45
O      25.73       8.67      14.35
H      20.84       9.38      11.35
C      21.92       7.54      11.31
C      22.59       9.52      12.60
C      23.06       6.87      11.80
C      21.72       8.87      11.73
O      21.08       5.76      10.01
C      23.93       7.53      12.67
O      19.92       7.72      10.05
C      23.73       8.85      13.09
H      24.81       7.01      13.05
C      24.75       9.42      14.03
