26

O       2.47      16.70       3.22
O       6.99      22.03      12.51
H       5.41      17.24       7.06
H       4.15      21.56       8.58
H       7.50      18.59      10.70
H       6.35      17.82       8.66
H       1.99      20.16       5.01
H       3.20      20.97       6.99
O       8.10      20.06      12.48
O       1.39      18.69       3.23
F       4.30      16.26       5.06
C       2.22      17.86       3.71
F       5.21      22.51      10.63
C       7.24      20.88      12.02
C       2.99      18.28       4.91
C       6.50      20.48      10.80
C       3.97      17.49       5.53
C       4.67      17.92       6.65
C       5.54      21.28      10.16
C       4.88      20.87       9.01
C       6.76      19.23      10.21
C       6.11      18.80       9.06
C       2.75      19.54       5.48
C       3.44      19.98       6.60
C       4.42      19.18       7.22
C       5.14      19.62       8.43
