28

H       7.14       5.50      17.54
H       2.85       5.49      24.48
H       7.13       5.49      24.45
H       7.11       5.49      22.01
H       2.86       5.50      17.57
H       2.88       5.49      20.01
O       3.88       5.51      15.30
O       6.15       5.54      15.31
O       6.13       5.50      26.71
O       3.86       5.52      26.73
H       8.14       5.46      19.39
H       1.86       5.46      22.63
C       5.01       5.52      15.89
O       7.46       5.47      20.10
O       2.53       5.47      21.93
C       4.99       5.51      26.13
C       5.00       5.51      17.38
C       4.99       5.50      24.64
C       6.20       5.50      18.10
C       6.22       5.49      19.50
C       3.80       5.49      23.92
C       3.77       5.48      22.53
C       6.19       5.49      23.92
C       6.16       5.49      22.53
C       3.81       5.50      18.11
C       3.83       5.49      19.49
C       5.02       5.49      20.27
C       4.97       5.49      21.75
