9

O       2.50      14.51      13.11
O       1.20      14.75      11.25
C       2.27      14.47      11.83
C       2.90      12.55      10.52
O       4.61      13.84      11.82
O       2.99      11.53      11.16
C       3.45      13.94      11.01
H       2.34      12.60       9.56
H       3.58      14.59      10.14
