34

H       3.19      18.96      20.84
H       0.91      20.62      17.54
H       0.91      22.12      23.59
H       3.19      23.78      20.28
H       1.97      22.11      19.21
H       1.97      20.63      21.91
H       0.58      17.45      16.07
H       3.32      15.82      19.28
H       3.32      26.91      21.84
H       0.58      25.29      25.05
C       1.95      26.63      23.71
C       1.95      16.11      17.41
C       1.96      17.40      18.05
C       2.65      17.60      19.29
C       2.64      18.84      19.91
C       2.03      19.94      19.28
C       1.40      19.78      18.03
C       1.31      18.52      17.45
C       2.04      21.26      19.89
C       2.04      21.48      21.23
C       1.40      22.96      23.09
C       2.03      22.80      21.85
C       2.64      23.90      21.22
C       2.65      25.14      21.83
C       1.96      25.34      23.07
C       1.31      24.22      23.67
O       1.02      26.89      24.59
O       2.86      27.51      23.41
O       1.02      15.84      16.53
O       2.86      15.23      17.71
O       0.63      18.41      16.29
O       3.31      16.59      19.91
O       3.31      26.15      21.21
O       0.63      24.32      24.84
