24

N       7.81       8.59      11.57
N       6.34      12.85       8.04
N       9.14      11.03      11.79
N       4.65      10.64       8.25
O       5.45       7.61      10.97
O       4.72       8.08       8.86
O       8.00      14.28       9.48
O       9.77      13.13      10.34
O       8.31       7.64      10.96
O       7.70       8.73      12.79
O       7.12      12.96       7.10
O       5.28      13.46       8.21
C       5.38       8.31       9.91
O       8.92      11.80      12.72
O       3.58      10.71       8.86
O       4.82      10.60       7.03
C       8.58      13.24       9.91
O      10.13      10.32      11.61
C       6.21       9.58       9.91
C       7.76      11.98       9.91
C       7.33       9.72      10.73
C       6.67      11.81       9.05
C       8.05      10.91      10.77
C       5.88      10.66       9.09
