12

C       5.69       3.27      11.12
O       5.42       1.68       1.40
O       4.40       3.72       1.39
C       5.34       2.93       3.35
C       5.06       2.78       1.95
C       5.36       2.97       4.58
C       5.37       3.01       5.92
C       5.37       3.03       7.15
C       5.39       3.06       8.49
C       5.42       3.10       9.72
O       6.40       2.37      11.69
O       5.25       4.34      11.67
