17

H       6.13      11.67       0.16
H       4.70      13.13      -1.29
O       3.29      15.22      -5.31
O       4.44      14.87      -7.20
H       5.76      13.05      -5.87
C       4.21      14.62      -5.97
C       5.04      13.61      -5.27
C       4.93      13.44      -3.94
C       5.71      12.53      -3.12
C       6.70      11.67      -3.63
C       7.43      10.88      -2.75
C       6.26      11.69      -0.92
C       5.48      12.50      -1.73
N       7.24      10.90      -1.41
H       4.20      14.06      -3.40
H       6.93      11.63      -4.69
H       8.20      10.20      -3.11
