16

H      11.94       5.55       9.40
H      16.36       8.02       7.02
H      11.51       8.48       6.52
H      16.80       5.14       9.97
H      14.30       4.83      10.20
H      14.00       8.78       6.27
C      14.72       5.54       9.49
C      13.58       8.05       6.97
C      16.08       5.70       9.37
C      12.22       7.90       7.09
C      15.85       7.34       7.72
C      12.45       6.24       8.73
C      14.44       7.26       7.77
C      13.86       6.33       8.68
N      11.68       6.99       7.96
N      16.63       6.59       8.49
