25

O      20.59      22.57      15.42
O      20.30      21.39      17.35
O      20.74      14.07      11.71
O      20.92      15.36       9.84
O      19.65      15.45      13.89
H      19.66      19.11      17.05
H      19.52      16.92      15.80
H      21.06      21.06      13.50
H      22.45      20.40      11.72
H      21.81      19.68      10.22
H      20.78      20.75      11.20
H      21.40      17.58      10.31
C      20.43      21.49      16.09
C      20.37      20.20      15.33
C      19.94      19.04      16.00
C      19.87      17.84      15.32
C      20.25      17.74      13.97
C      20.70      18.91      13.30
C      20.74      20.14      13.99
C      21.56      19.98      11.24
C      21.07      17.59      11.35
C      20.67      16.41      11.93
C      20.77      15.18      11.11
C      20.15      16.41      13.30
N      21.09      18.80      11.97
