22

O       2.83       8.88      12.32
H       2.15       6.16      12.48
H       1.82       8.74      15.91
H       2.00       6.77      17.43
H       2.15       4.30      17.73
H       1.81       1.73      14.30
H       2.00       3.69      12.78
C       1.93       1.71      16.99
C       1.93       8.75      13.22
C       2.10       6.29      13.56
C       1.92       7.73      15.51
C       2.01       6.64      16.34
C       2.07       5.32      15.82
C       2.10       4.18      16.65
C       1.92       2.74      14.70
C       2.01       3.83      13.86
C       2.07       5.14      14.39
C       1.99       7.55      14.10
C       1.99       2.91      16.10
O       0.97       0.89      16.78
O       2.83       1.58      17.88
O       0.97       9.57      13.42
