32

H       1.77       2.91       4.35
H       1.61       0.75       5.61
H       2.05       2.92       9.32
H       2.05      -2.92       6.73
H       1.61      -0.76      10.44
H       1.77      -2.91      11.70
C       2.09      -5.37      10.75
C       2.10       5.37       5.30
C       2.02       4.11       6.12
C       1.84       2.90       5.44
C       1.74       1.70       6.14
C       1.83       1.70       7.54
C       1.98       2.91       8.23
C       2.07       4.09       7.51
C       1.98      -2.91       7.82
C       1.83      -1.70       8.51
C       1.74      -1.70       9.91
C       1.84      -2.90      10.61
C       2.01      -4.12       9.93
C       2.07      -4.10       8.54
N       1.82       0.54       8.35
N       1.82      -0.54       7.70
N       2.30       5.34       8.27
N       2.30      -5.34       7.78
O       1.16      -6.21      10.64
O       3.06      -5.42      11.57
O       1.16       6.21       5.41
O       3.06       5.42       4.48
O       2.89       6.26       7.67
O       1.90       5.38       9.44
O       2.89      -6.26       8.38
O       1.90      -5.39       6.61
