13

H      -3.53      10.08      14.54
H      -3.05      11.35      15.70
H      -1.96      10.74      11.97
H      -1.87       9.33      13.01
C      -2.67      10.57      15.03
O      -0.67       9.48      15.81
O      -2.61       8.85      16.73
O       0.85      10.76      13.41
O       0.38       9.57      11.58
C      -1.95       9.55      15.91
N      -1.77      11.19      14.05
C      -1.47      10.35      12.87
C       0.02      10.22      12.60
