20

C       0.44      15.90      21.46
C      -1.64      15.90      21.00
C      -0.47      15.90      17.46
C      -0.93      15.90      16.15
C      -2.30      15.90      15.87
C      -3.21      15.90      16.93
C      -2.77      15.90      18.25
C      -1.39      15.90      18.51
H       1.35      15.90      22.05
C      -2.79      15.90      14.45
H      -2.72      15.90      21.07
H       0.60      15.90      17.69
H      -0.23      15.90      15.32
H      -4.28      15.90      16.72
H      -3.50      15.90      19.06
N      -0.92      15.90      19.85
N       0.42      15.90      20.14
N      -0.81      15.90      22.03
O      -1.91      15.90      13.53
O      -4.05      15.90      14.29
