10

C       8.94       5.35       5.10
C       9.25       5.50       3.80
O      10.83       5.00       0.81
C       8.67       5.22       6.29
O       7.40       5.81       8.13
O       8.58       3.86       8.16
C       8.21       4.94       7.62
C      10.05       5.90       1.30
C       9.54       5.63       2.62
O       9.75       7.00       0.76
