44

C       3.13       0.60      21.02
H       8.09      -0.73      24.56
C       2.33      -3.68      24.60
H       6.65      -1.60      23.96
C       0.85      -3.50      24.91
H       8.48      -1.64      22.28
S       8.66       2.05      24.57
H       8.55       0.14      22.26
S       3.21       2.35      25.20
H       7.12      -0.71      21.64
S       2.94       1.64      27.15
H       5.38       3.91      26.28
S       2.42      -2.99      21.44
H       7.10       3.89      25.82
S       3.68      -1.54      26.59
S       2.10      -0.21      27.02
H       5.94       5.83      24.72
H       4.76       4.73      23.97
N       6.48       0.46      24.12
H       6.47       4.65      23.49
N       5.96       2.43      24.95
H       5.16       0.21      21.65
N       3.89      -1.04      22.71
H       4.43      -1.12      20.72
N       2.95      -2.46      24.09
H       3.45       1.09      20.09
H       2.95       1.39      21.77
H       2.20       0.06      20.83
H       2.89      -3.97      25.49
H       2.49      -4.44      23.83
H       0.44      -4.42      25.34
H       0.27      -3.28      24.00
H       0.69      -2.69      25.63
C       7.01       1.66      24.53
C       4.77       1.72      24.80
C       5.10       0.49      24.28
C       7.30      -0.72      23.81
C       7.90      -0.72      22.41
C       6.08       3.80      25.44
C       5.79       4.81      24.34
C       3.09      -2.16      22.76
C       3.64      -1.53      24.86
C       4.24      -0.64      23.98
C       4.24      -0.34      21.47
