28

O      32.65      20.16       9.79
O      33.79      18.19       9.79
O      23.94      12.51       1.76
H      27.82      13.55       4.50
H      25.65      17.31       4.49
O      22.81      14.48       1.76
H      30.95      15.36       7.06
H      28.78      19.12       7.06
C      32.81      18.94       9.46
F      23.76      16.48       3.05
F      26.15      12.33       3.05
F      30.44      20.34       8.51
C      23.78      13.73       2.09
F      32.84      16.19       8.51
C      24.84      14.34       2.96
C      24.79      15.68       3.40
C      25.76      16.27       4.20
C      26.87      15.51       4.61
C      26.97      14.17       4.20
C      25.98      13.62       3.40
C      27.87      16.09       5.42
C      28.73      16.58       6.13
C      29.73      17.16       6.94
C      29.62      18.50       7.36
C      30.62      19.05       8.15
C      31.75      18.33       8.60
C      31.81      16.99       8.15
C      30.84      16.40       7.35
