19

C      30.19      19.01      25.23
H      30.13      18.58      31.16
S      30.12      20.93      28.84
S      30.28      16.85      27.93
H      31.86      18.12      25.61
C      30.27      22.02      26.31
O      30.05      23.10      26.96
O      30.58      21.90      25.08
C      30.26      15.79      30.49
O      30.20      15.96      31.76
O      30.34      14.68      29.86
O      31.22      18.18      24.87
O      29.30      19.27      24.45
C      30.23      19.46      26.66
C      30.17      18.32      30.10
C      30.19      20.78      27.11
C      30.23      17.01      29.67
C      30.17      19.21      29.01
C      30.24      18.57      27.76
