26

H      13.80       9.76       1.16
H      14.74       7.47       0.99
H      18.58       9.15      -0.05
H      17.65      11.42       0.19
H      16.09       5.89       1.86
H      17.10       3.64       1.64
H      19.65       5.06      -1.51
H      18.64       7.32      -1.30
C      15.11      12.12       0.78
C      15.66      10.73       0.67
C      14.85       9.61       0.90
C      15.38       8.33       0.81
C      16.73       8.13       0.44
C      17.53       9.27       0.21
C      17.00      10.55       0.33
C      17.30       6.78       0.30
C      16.86       5.71       1.11
C      17.43       4.45       1.00
C      18.44       4.21       0.06
C      18.87       5.26      -0.77
C      18.31       6.52      -0.64
C      19.06       2.85      -0.05
O      13.83      12.22       0.87
O      15.92      13.09       0.78
O      20.06       2.74      -0.86
O      18.59       1.91       0.66
