13

C       6.14       8.76       4.26
O       3.69       5.34       4.18
C       4.36      10.00       3.43
H       4.00      10.97       3.06
C       3.51       8.91       3.50
C       3.12       6.48       4.04
H       2.47       8.99       3.18
O       1.87       6.64       3.95
N       5.65       9.94       3.81
C       4.01       7.69       3.97
C       5.36       7.62       4.34
H       5.79       6.68       4.69
H       7.20       8.74       4.53
