24

O      -4.48      -6.60      14.22
O      -2.48      -6.06      13.32
O       1.95       1.07      13.12
O       1.77      -0.99      14.03
C      -2.24       1.45      13.34
C      -0.86       1.39      13.30
C      -0.22       0.16      13.45
C      -1.00      -0.99      13.59
C      -2.39      -0.87      13.60
H      -6.61      -2.19      14.09
H      -6.06      -4.64      14.18
H      -1.93      -3.66      13.63
C       1.29       0.08      13.52
H      -2.77       2.40      13.25
H      -0.25       2.29      13.16
H      -0.50      -1.95      13.72
N      -4.63      -1.60      13.85
N      -2.99       0.35      13.49
C      -5.59      -2.54      14.00
C      -5.28      -3.89      14.05
C      -3.96      -4.31      13.89
C      -2.96      -3.33      13.75
C      -3.32      -1.99      13.74
C      -3.61      -5.78      13.82
