10

O       7.08       5.54       3.90
C       5.87       5.64       3.53
C       5.07       5.42      -3.09
C       5.67       5.62       2.10
O       4.83       5.72       4.26
C       5.57       5.56       0.88
O       6.08       5.35      -3.87
O       3.84       5.51      -3.42
C       5.34       5.45      -1.68
C       5.45       5.51      -0.46
