22

O       0.02       7.17       4.86
H      -1.14      12.75       4.63
H       2.45       8.45       2.81
H       0.96       7.90       2.00
H       2.48      10.52       1.38
H       0.99       9.98       0.57
H      -1.74       9.77       6.75
C       0.05      13.13       2.18
C       0.66      10.72       2.63
C       0.04      11.91       3.03
C      -0.62      11.87       4.27
C      -0.66      10.71       5.06
C      -0.01       9.52       4.65
C       0.63       9.57       3.42
C       1.47       8.77       2.44
C       1.49      10.07       1.54
C       0.08       8.28       5.49
C      -1.51      10.76       6.29
O       0.23       8.45       6.74
O      -0.21      14.25       2.75
O       0.33      12.94       0.95
O      -1.96      11.79       6.76
