28

H      24.35      13.51      15.13
H      26.05      14.01      15.28
H      25.41      12.68      16.28
H      26.80      11.77      14.39
H      25.80      12.61      13.21
N      24.90      10.97      14.16
H      26.28       9.91      15.29
H      21.05       8.91      12.85
H      21.81      12.91      11.40
H      23.88      13.01      12.72
O      24.70       7.34      16.89
O      26.09       7.02      15.12
O      22.49       7.62      14.38
O      20.30      10.61       9.91
O      18.99      11.33      11.63
C      25.37      13.14      15.29
C      25.78      12.14      14.21
C      25.28       9.85      14.84
C      24.51       8.73      14.97
C      25.13       7.60      15.72
C      23.21       8.63      14.33
C      22.85       9.84      13.55
C      21.65       9.82      12.80
C      21.29      10.91      12.02
C      22.10      12.06      12.01
C      23.27      12.11      12.74
C      23.68      10.99      13.50
C      20.09      10.93      11.12
