12

C       0.20       5.54      21.29
C      -1.11       3.77      22.92
C      -1.22       5.44      21.31
C       0.27       3.82      22.86
N       0.92       4.68      22.06
N      -1.83       4.59      22.12
H      -1.66       3.11      23.59
H      -1.84       6.07      20.68
H       0.90       3.16      23.47
N       0.83       6.45      20.54
H       1.82       6.66      20.73
H       0.29       7.13      20.03
