46

H       3.62       4.95      14.26
H       3.73       8.66      16.28
H       3.96       4.94      11.78
H       3.96       8.68      18.77
H       8.05       9.17      10.80
H       7.65       7.44      10.89
H       8.83       9.09      13.20
H       8.49       7.36      13.25
H      10.18       6.98      11.38
H      10.93       7.74      12.80
H      10.54       8.72      11.37
H       7.61       4.12      20.00
H       7.48       5.87      19.74
H       8.41       3.86      17.61
H       8.34       5.61      17.40
H      10.07       5.89      19.25
H      10.69       4.89      17.92
H      10.14       4.14      19.43
C       5.27       6.69      10.27
C       5.05       6.90      20.37
C       5.13       6.73      11.76
C       4.98       6.81      18.87
C       5.71       7.76      12.54
C       5.49       5.71      18.14
C       5.48       7.76      13.92
C       5.32       5.71      16.75
C       4.74       6.76      14.57
C       4.71       6.75      16.05
C       4.19       5.74      13.78
C       4.21       7.83      16.80
C       4.38       5.73      12.40
C       4.34       7.85      18.18
C       7.76       8.37      11.49
C       8.80       8.18      12.58
C      10.19       7.89      12.00
C       7.46       4.89      19.23
C       8.52       4.82      18.14
C       9.94       4.94      18.72
O       5.37       5.53       9.74
O       4.92       8.07      20.88
O       5.26       7.80       9.65
O       5.21       5.82      21.03
O       6.48       8.77      12.03
O       6.14       4.64      18.68
F       6.07       8.73      14.66
F       5.85       4.67      16.05
