29

C       2.90       5.54      10.10
C      -2.74       5.99       9.75
C      -0.37       4.98       9.00
C      -1.14       5.15      12.46
C      -0.12       4.83      13.55
C      -0.78       4.44      14.88
C       0.40       4.55      10.29
C       1.43       5.73      10.06
C       0.65       6.15       8.77
C      -0.24       7.12       9.63
C       0.53       6.68      10.93
C      -0.49       5.51      11.16
C      -1.27       5.96       9.84
H       0.69       3.54      10.56
H      -0.76       4.31       8.24
H       1.13       6.39       7.82
O      -3.33       7.14       9.71
H      -0.51       8.15       9.37
H       0.91       7.34      11.71
O       3.49       5.49      11.24
H      -1.45       5.23      15.24
O       3.48       5.41       8.97
H       0.54       4.02      13.21
O      -3.32       4.86       9.73
H      -1.79       5.99      12.78
H      -1.81       4.29      12.29
H       0.53       5.71      13.71
H      -1.38       3.52      14.76
H      -0.03       4.25      15.66
