18

O       4.38       8.65       2.38
C       6.09      13.57       5.53
H       5.19      14.59       3.21
O       6.05       8.62       3.91
C       4.78      11.42       2.05
H       4.46      10.88       1.15
C       5.65      12.80       4.32
O       4.25      12.98      -0.26
H       5.98      10.85       5.19
C       5.65      11.40       4.31
O       4.01      14.81       1.02
C       4.76      12.82       2.06
O       6.20      12.95       6.64
O       6.31      14.81       5.39
C       5.21       9.21       3.15
C       5.20      13.50       3.20
C       5.22      10.71       3.17
C       4.31      13.58       0.87
