22

C       6.41      12.52       9.56
C       5.54      14.62       8.76
N       5.73      21.46       8.67
N       5.55      11.83       8.78
H       4.24      18.92       7.03
H       7.05      18.83      10.32
H       4.40      21.42       7.09
H       7.07      21.34      10.25
H       3.92      14.39       7.32
H       7.14      14.43      10.21
H       4.01      11.88       7.40
H       7.09      11.92      10.16
C       4.88      19.42       7.76
C       6.45      19.37       9.60
C       4.96      20.80       7.79
C       6.47      20.75       9.56
C       5.64      18.67       8.68
C       5.58      17.25       8.70
C       5.55      16.04       8.73
C       4.64      13.88       7.96
C       6.43      13.91       9.58
C       4.68      12.50       8.01
