18

O      11.78      15.76       0.42
O      11.78      13.70       1.27
O      11.78      18.60       6.78
O      11.78      16.61       7.80
H      11.78      13.64       3.78
H      11.78      14.94       7.21
N      11.78      14.45       6.31
H      11.78      13.45       6.19
H      11.78      17.59       2.07
H      11.78      18.57       4.39
C      11.78      14.97       1.42
C      11.78      15.56       2.80
C      11.78      14.73       3.91
C      11.78      15.27       5.22
C      11.78      16.68       5.38
C      11.78      17.50       4.23
C      11.78      16.96       2.95
C      11.78      17.33       6.72
