22

C       5.24       9.74      22.18
C       5.14      12.63      22.17
C       6.40      10.52      22.19
H       3.10       9.85      22.16
H       8.39      10.04      23.09
H       8.39      10.07      21.30
H       8.26      12.57      21.32
H       8.24      12.56      23.11
C       3.94      11.85      22.15
C       6.33      11.91      22.19
C       4.02      10.44      22.16
C       7.92      10.50      22.20
C       7.84      12.08      22.21
H       2.68      13.44      21.97
H       1.90      11.88      21.88
N       2.69      12.44      22.17
C       5.24       8.25      22.20
C       5.16      14.11      22.16
O       4.11       7.66      22.27
O       6.38       7.67      22.15
O       6.29      14.68      22.26
O       4.04      14.74      22.04
