20

H      20.99      17.17       6.63
H      22.88      19.04      10.01
H      24.61      20.00       8.48
H      23.20      16.00       4.86
H      24.52      17.18       4.53
H      23.27      16.88       3.29
C      23.46      16.95       4.37
C      21.79      17.78       7.05
C      21.83      18.04       8.42
C      22.85      18.84       8.94
C      23.81      19.37       8.09
C      20.79      17.44       9.31
C      23.79      19.12       6.70
C      24.84      19.78       5.86
C      22.75      18.30       6.18
O      19.85      16.79       8.74
O      25.80      20.35       6.49
O      24.69      19.74       4.60
O      20.93      17.61      10.57
O      22.61      18.01       4.85
