40

H      26.71      18.04      18.36
H      27.69      20.05      14.67
H      26.80       9.80      13.90
H      27.60      11.82      10.17
O      26.78       8.35      11.90
O      27.62       9.37      10.04
H      29.10      16.43      13.40
H      25.30      15.01      16.01
H      26.09      15.16      11.96
H      28.31      13.11      15.73
O      27.14      20.45      18.58
O      27.26      21.54      16.57
C      27.20       9.36      11.25
C      27.20      20.50      17.30
O      28.88      17.06      12.68
O      27.55      18.83      12.36
O      25.52      14.75      16.92
O      26.85      15.44      18.59
O      26.68      15.34      11.20
O      28.37      14.33      10.12
C      27.20      19.19      16.59
C      26.91      18.01      17.29
C      26.85      16.79      16.62
C      27.20      16.71      15.24
C      27.55      17.91      14.56
C      27.49      19.13      15.22
C      27.20      15.47      14.57
C      27.20      14.39      13.98
C      27.20      13.15      13.30
C      27.03      11.93      14.03
C      26.98      10.72      13.34
C      27.20      10.68      11.96
C      27.42      11.86      11.25
C      27.37      13.09      11.89
O      27.72      12.57      16.29
O      26.03      11.12      16.03
C      27.96      17.97      13.11
C      26.44      15.60      17.46
C      27.54      14.30      11.01
C      26.86      11.85      15.52
