16

C      -3.51       4.77       5.69
O      -6.51       7.65       5.75
C      -4.49       5.75       5.70
C      -4.71       3.54       7.40
H      -2.65       4.84       5.03
C      -3.61       3.65       6.54
C      -5.59       5.63       6.56
H      -4.43       6.61       5.05
O      -2.73       1.60       7.31
H      -6.56       4.44       8.08
C      -2.56       2.59       6.52
H      -4.78       2.67       8.06
O      -1.58       2.76       5.73
O      -7.62       6.53       7.40
C      -6.66       6.68       6.57
C      -5.70       4.52       7.42
