20

O     -12.83       7.33      13.19
O     -12.97       7.89       8.92
O     -15.09       7.86      11.82
H     -11.70       9.28      10.74
O     -15.31       6.63       8.48
H     -12.53       7.47      14.12
H     -11.38       6.55       9.17
H     -10.89       8.25       8.87
H     -11.61       7.28       7.55
H     -15.97       7.43      11.85
C     -15.57       6.86       9.71
C     -12.39       8.54      11.16
C     -12.21       8.30      12.49
C     -13.33       7.94      10.24
C     -14.61       7.56      10.58
C     -11.26       9.14      13.29
C     -11.63       7.47       8.62
O     -11.31       8.90      14.55
O     -16.66       6.52      10.32
O     -10.51       9.98      12.70
