16

C      27.16      11.82      25.51
O      25.87       4.85      29.81
C      26.95       5.39      29.37
O      28.14       4.95      29.51
S      25.51       9.98      26.84
S      28.42       7.22      28.03
H      24.79       7.23      28.55
C      28.09       9.70      26.61
C      25.82       7.45      28.27
C      27.06      10.57      26.27
C      26.89       6.64      28.60
C      26.26       8.58      27.54
C      27.65       8.58      27.33
F      29.38       9.90      26.31
O      28.31      12.08      25.02
O      26.10      12.53      25.41
