36

C      10.83      15.95      17.26
C       9.96      16.65      16.41
C       9.96      18.04      16.42
C      11.69      16.65      18.10
C      11.70      18.04      18.10
C      10.83      18.76      17.26
C      10.83      20.24      17.26
C      12.03      20.96      17.26
C       9.62      20.96      17.25
C      10.83      27.36      17.26
C       9.96      26.66      18.10
C       9.96      25.26      18.10
C      11.69      26.66      16.41
C      11.70      25.26      16.42
C      10.83      24.55      17.26
C      10.83      23.07      17.26
C       9.62      22.35      17.26
C      12.03      22.35      17.25
H       9.30      16.10      15.75
H       9.30      18.59      15.74
H      12.35      16.09      18.76
H      12.36      18.59      18.77
H      12.98      20.42      17.26
H       8.67      20.42      17.25
H       9.30      27.21      18.76
H       9.30      24.72      18.77
H      12.35      27.21      15.75
H      12.36      24.72      15.74
H       8.67      22.89      17.26
H      12.98      22.89      17.25
O      11.64      29.43      16.45
O      10.02      29.43      18.06
C      10.83      28.85      17.26
O      10.02      13.87      16.45
C      10.83      14.45      17.26
O      11.64      13.87      18.06
