32

H       8.20       0.95       6.55
H       4.12      -0.99       7.53
H       4.36       0.95       8.52
H       8.44      -0.99       7.53
H      10.27       3.99       6.60
H       2.60      -4.62       6.52
H       2.28       3.99       8.46
H       9.95      -4.62       8.55
C       7.34       1.45       7.00
C       5.09      -1.48       7.53
C       5.21       1.45       8.06
C       7.47      -1.48       7.53
C       7.31       2.84       7.01
C       5.12      -2.87       7.51
C       5.25       2.84       8.05
C       7.43      -2.87       7.55
C       8.46       3.55       6.32
C       3.75      -3.52       7.53
C       4.10       3.55       8.74
C       8.80      -3.52       7.53
C       6.28       0.72       7.53
C       6.28      -0.75       7.53
N       6.28       3.55       7.53
N       6.28      -3.58       7.53
O       9.58       3.47       7.07
O       2.98      -3.31       8.45
O       3.47      -4.17       6.40
O       4.17       4.01       9.86
O       2.97       3.47       7.99
O       9.57      -3.31       6.61
O       9.09      -4.17       8.67
O       8.38       4.01       5.20
