26

C       6.56      12.31      43.66
C       6.56      12.31      42.16
H       4.77      13.50      50.62
H       4.76      13.50      48.14
H       7.31      10.29      46.30
H       7.35      10.32      43.81
O       7.64      12.04      52.89
O       7.12      11.32      41.58
C       7.57      11.64      50.07
C       7.56      11.63      48.68
C       6.12      13.44      45.76
C       6.11      13.44      44.37
O       5.48      12.59      52.89
O       5.99      13.30      41.58
H       8.35      11.12      50.62
H       8.36      11.12      48.14
H       5.80      14.33      46.30
H       5.77      14.30      43.81
C       6.99      11.18      45.76
C       6.56      12.31      50.77
C       5.55      12.99      50.07
C       5.56      12.99      48.68
C       6.56      12.31      52.25
C       7.00      11.19      44.37
C       6.56      12.31      47.96
C       6.56      12.31      46.48
