28

H       6.66       4.70       4.75
H       6.82       4.50       2.27
H       2.92       6.31       1.93
H       6.96       6.30      -2.23
H       3.31       4.23      -4.85
H       3.12       4.33      -2.37
C       5.29       4.93      -6.43
C       4.69       5.64       6.24
C       4.70       5.56       4.74
C       5.84       5.03       4.12
C       5.93       4.92       2.74
C       4.87       5.38       1.93
C       3.73       5.93       2.54
C       3.64       6.02       3.93
C       4.95       5.33       0.51
C       4.99       5.32      -0.71
C       5.05       5.29      -2.12
C       6.16       5.83      -2.80
C       6.25       5.77      -4.19
C       5.23       5.16      -4.95
C       4.11       4.67      -4.26
C       4.00       4.73      -2.88
Cl       2.24       6.79       4.58
Cl       7.64       6.54      -4.89
O       6.42       4.98      -7.00
O       5.80       5.91       6.79
O       3.59       5.43       6.84
O       4.18       4.66      -7.00
