19

C       5.47       1.55       4.93
C       3.23       3.86       3.22
C       4.36       0.81       5.33
C       4.33       4.60       2.81
C       3.63       2.75       3.99
C       5.03       2.66       4.16
C       6.90       1.25       5.24
H       2.21       4.14       2.96
S       2.83       1.46       4.79
S       5.85       3.95       3.36
H       7.08       1.23       6.32
H       7.56       2.01       4.78
H       7.19       0.26       4.86
C       4.34      -0.41       6.14
C       4.32       5.82       2.00
O       3.18      -0.91       6.40
O       5.46      -0.88       6.52
O       5.46       6.33       1.73
O       3.18       6.26       1.63
