20

H       5.55       5.66      24.40
H       1.13       4.24      26.23
O       4.53       8.49      20.41
O       2.15       1.41      30.23
O       2.24       8.43      20.38
O       4.44       1.46      30.25
F       5.65       4.17      26.54
F       1.03       5.73      24.10
C       3.39       8.14      20.85
C       3.29       1.76      29.79
C       4.58       5.35      24.80
C       2.09       4.54      25.84
C       3.40       5.76      24.16
C       3.28       4.13      26.48
C       2.17       5.33      24.71
C       4.50       4.56      25.92
C       3.41       6.58      23.01
C       3.26       3.31      27.63
C       3.28       2.61      28.62
C       3.40       7.29      22.02
