10

O       8.15       0.38       9.93
O      10.31       0.38      17.72
C       9.23       0.01      15.72
O       8.15      -0.37      17.72
C       9.23      -0.00      11.93
O      10.31      -0.37       9.93
C       9.23       0.00      14.50
C       9.23       0.00      13.15
C       9.23       0.00      10.50
C       9.23       0.00      17.15
