32

H       1.99       5.43       6.21
H       2.05      10.91      10.93
H      -1.30       8.29       7.36
H       5.35       9.35       8.27
H      -2.60      11.35       9.79
H       6.65       6.48       5.60
H       4.37       5.45       5.44
H      -0.32      11.67      10.79
H      -0.17       5.47       6.92
H      -0.79       6.44       8.15
H       4.22      10.20      10.99
H       4.84       8.84      10.21
C       4.55       6.30       6.09
C      -0.50      10.89      10.04
C       5.80       6.86       6.16
C      -1.75      10.74       9.50
C       5.07       8.46       7.70
C      -1.02       8.98       8.15
C       3.77       7.93       7.75
C       0.28       9.01       8.68
C       3.48       6.84       6.86
C       0.57      10.05       9.63
C       2.70       8.50       8.53
C       1.35       8.15       8.23
C       1.12       6.93       7.46
C       2.93       9.44       9.62
C       2.18       6.32       6.80
C       1.87      10.19      10.12
N       6.05       7.95       6.94
N      -2.00       9.81       8.53
N      -0.13       6.37       7.37
N       4.18       9.62      10.17
