16

C       7.36       6.54      20.41
C       7.53       2.95      20.16
O       7.32       1.78      23.61
C       7.45       2.85      21.54
C       7.49       4.30      19.75
C       7.39       5.20      20.84
O       7.55       0.51      21.72
C       7.44       6.67      19.03
O       7.48       7.74      16.95
O       7.40       9.01      18.86
C       7.44       7.90      18.22
H       7.60       2.08      19.51
S       7.33       4.38      22.35
F       7.27       7.56      21.27
S       7.54       5.13      18.24
C       7.44       1.62      22.35
