35

H       2.36       2.59       3.93
H       3.75       1.56       3.70
H       3.44       3.80       1.69
H       4.91       3.15       2.37
H       4.47       4.98       5.72
H       3.73       3.44       5.42
H       5.83       2.47       5.29
H       6.23       3.47       3.89
H       0.97       6.00       2.77
H       2.48       6.03       1.90
H       5.58       4.90       1.36
H       6.98       6.82       0.73
H       7.03       8.87       2.14
H       5.64       8.96       4.22
H       4.24       7.03       4.86
N       1.96       5.79       2.73
O       2.49       1.72       0.92
O       1.52       0.60       2.65
O       6.63       4.44       6.98
O       7.99       4.53       5.16
O       1.78       4.86       4.79
C       2.32       1.47       2.16
C       3.10       2.27       3.17
C       3.89       3.46       2.63
C       3.94       4.64       3.64
C       4.45       4.15       5.01
C       5.86       3.51       4.92
C       6.91       4.22       5.75
C       2.47       5.12       3.80
C       4.81       5.81       3.17
C       5.58       5.78       2.00
C       6.38       6.87       1.64
C       6.41       8.02       2.43
C       5.63       8.07       3.59
C       4.84       6.98       3.95
