24

C       7.24       6.01      15.48
C       8.18       6.80      17.34
H       6.15       7.79      16.61
C       8.37       6.69      14.60
C       8.15       6.81      18.76
C       8.40       6.67      13.19
H      10.40       5.70      15.33
H       8.18       9.01      15.04
H       8.37       4.48      16.90
O       9.66       6.70      21.76
O       7.43       6.86      22.16
O       6.88       6.79      10.18
H       6.42       5.42      15.06
H      10.13       8.06      16.88
O       9.12       6.63       9.78
C       8.45       6.78      21.40
C       8.10       6.70      10.54
C       8.22       8.00      15.47
C       8.33       5.48      16.47
C       7.09       7.32      16.32
C       9.46       6.16      15.62
C       8.23       6.80      19.97
C       8.32       6.69      11.97
C       9.31       7.48      16.46
