28

Br       2.93      17.60      13.30
Br       1.13      20.32       8.59
H       1.39      11.66       9.12
H       2.67      13.72       5.54
H       2.68      15.47      11.32
H       1.39      17.53       7.74
O       1.07      20.32      12.41
O       2.99      20.91      11.39
C       2.03      20.11      11.61
O       1.07       8.87       4.44
C       2.03       9.08       5.24
C       2.03      10.39       6.00
C       1.67      10.45       7.35
C       1.68      11.65       8.06
C       2.03      12.84       7.42
O       3.00       8.28       5.46
C       2.39      11.59       5.37
C       2.03      14.07       8.12
C       2.03      15.12       8.73
C       2.03      16.35       9.44
C       2.39      12.81       6.05
C       2.39      16.39      10.80
C       2.03      18.80      10.86
C       1.67      18.74       9.50
C       1.67      17.55       8.79
C       2.39      17.60      11.48
Br       1.13       8.88       8.26
Br       2.93      11.59       3.55
