22

H       0.40       7.86       4.88
H       4.75       3.85       5.13
H       4.50       2.13       3.37
C       2.27       8.13       6.66
C       2.22       7.01       5.66
C       2.65       2.91       2.62
C       3.89       3.87       4.46
C       3.76       2.91       3.50
C       1.71       3.92       2.74
C       1.82       4.98       3.69
C       2.96       4.93       4.59
C       3.13       5.97       5.56
C       1.11       7.04       4.77
C       0.92       6.08       3.81
C       2.57       1.83       1.58
Br      -0.61       6.36       2.70
Br       4.60       5.83       6.77
O       1.13       8.52       7.08
O       3.39       8.60       7.01
O       1.42       1.43       1.20
O       3.69       1.41       1.17
F       0.66       3.93       1.89
