24

O       9.36      -2.52      12.38
C       8.30       2.02      10.09
H       9.25       2.14      15.76
C       8.01       2.93       9.07
O       7.89       1.18       7.48
H       9.71      -0.34      15.69
C       7.92       4.29       9.39
O       7.70       3.35       6.79
H       8.36       0.97       9.83
C       8.11       4.69      10.71
H       8.96      -0.28      11.49
C       9.64      -1.95      13.48
C       7.84       2.41       7.64
H       7.71       5.01       8.60
H       8.04       5.74      10.99
C       9.21       1.58      14.83
C       9.46       0.21      14.79
N       8.90       2.28      13.72
C       9.38      -0.46      13.57
O      10.08      -2.51      14.53
C       9.04       0.26      12.43
N       8.39       3.81      11.69
C       8.82       1.63      12.52
C       8.49       2.48      11.39
