18

F       7.47       0.59      11.00
O       3.51      -0.32       9.76
O       5.05       0.55       7.96
C       5.35       1.43      10.44
C       4.95       2.70      10.32
C       6.31       1.08      11.50
C       7.13       1.04      13.85
C       6.12       1.29      12.81
S       4.79       0.13       9.31
H       6.61      -0.97       9.15
O       5.79      -1.08       9.67
C       4.07       3.30       9.28
H       5.37       3.44      11.01
O       4.40       4.46       8.90
H       5.14       1.66      13.13
O       3.06       2.62       8.87
O       8.26       0.58      13.52
O       6.78       1.32      15.07
