29

C      11.21      13.92      10.31
C      11.98      14.90      10.96
C      11.75      16.25      10.73
C      10.76      16.65       9.82
C       9.99      15.67       9.18
C      10.20      14.31       9.43
C      10.75      11.46      10.34
C      13.15       8.71      11.48
C      12.72       9.95      11.00
C      11.35      10.18      10.86
C      10.46       9.15      11.20
C      10.97       7.95      11.69
C      12.54      17.26      11.52
C       8.90      16.05       8.22
H      12.33      12.43      11.17
H      12.77      14.62      11.67
H      10.59      17.70       9.62
H       9.57      13.57       8.95
H      14.21       8.47      11.58
H      13.47      10.68      10.71
H       9.39       9.30      11.08
H      10.33       7.12      11.99
N      11.50      12.57      10.60
N      12.29       7.74      11.82
O       9.66      11.46       9.76
O      13.47      16.79      12.24
O      12.20      18.48      11.42
O       9.10      17.06       7.48
O       7.88      15.30       8.22
