32

H       4.22       6.42      14.75
H       3.80       9.48      24.61
H       3.47       9.56      19.98
H       3.06      10.49      17.36
H       3.14      10.59      14.85
H       3.48       5.12      23.44
H       3.90       6.19      18.30
H       3.59       4.19      21.30
C       3.70       8.51      14.66
C       3.95       7.30      15.31
C       3.85       7.21      16.71
C       3.54       8.40      17.45
C       3.30       9.61      16.77
C       3.35       9.67      15.39
C       3.56       8.57      21.58
C       3.62       8.52      23.00
C       3.55       7.36      20.83
C       3.52       7.19      25.11
C       3.56       7.27      23.64
C       3.52       6.07      22.89
C       3.55       6.10      21.52
C       3.80       8.58      13.18
N       3.47       8.45      18.83
N       3.58       7.32      19.46
O       3.69       9.71      23.64
O       3.53       9.76      20.99
O       4.05       6.03      17.31
O       3.57       4.98      20.73
O       3.16       6.10      25.67
O       3.28       9.59      12.59
O       3.87       8.26      25.77
O       4.42       7.61      12.60
