26

Cl       6.87       5.73       1.96
Cl       6.02       6.99      -2.85
C       7.92       2.79      -0.52
C       2.92       7.87      -0.50
C       7.79       3.62       0.60
C       6.88       4.67       0.58
O       9.25       1.23       0.65
O       9.37       1.27      -1.62
H       8.43       3.45       1.47
C       3.82       7.83      -1.57
C       4.86       6.90      -1.56
H       4.12       5.26       1.31
H       7.21       2.36      -2.51
H       5.51       4.18      -2.48
C       3.04       6.96       0.55
C       4.05       6.00       0.51
C       7.11       3.01      -1.64
C       6.17       4.03      -1.62
C       6.03       4.90      -0.52
C       4.99       5.95      -0.53
O       1.57       9.39       0.68
O       1.32       9.27      -1.57
C       8.92       1.68      -0.49
C       1.85       8.92      -0.46
H       3.73       8.55      -2.38
H       2.34       7.00       1.38
