22

C       3.23      15.33       7.06
C       3.42      20.59      13.17
C       3.27      16.11       8.35
C       3.48      19.76      11.92
C       4.06      19.60       9.57
C       3.03      16.15      10.77
C       3.94      20.35      10.73
C       3.08      15.44       9.57
C       3.18      18.40      11.96
C       3.48      17.48       8.33
C       3.26      17.57      10.80
C       3.61      18.23       9.54
Cl       3.42      18.20       6.76
Cl       2.73      17.84      13.54
Cl       2.87      13.74       9.52
Cl       4.38      22.01      10.77
Cl       4.90      20.33       8.26
Cl       2.71      15.20      12.17
O       2.09      15.03       6.60
O       4.54      20.80      13.73
O       4.36      15.06       6.56
O       2.28      20.98      13.56
