13

O       2.13       8.55       4.09
H       2.88       9.36       2.33
C       3.02       8.49       2.98
H       4.07       8.44       3.31
C       2.68       7.23       2.19
O       0.21       9.03       5.74
O       1.42      10.58       6.88
C       1.26       9.67       6.00
H       3.21       8.79       5.86
C       2.52       9.35       5.20
H       3.01      10.28       4.87
O       1.59       6.64       2.44
O       3.54       6.91       1.31
