28

O      18.27      28.60      12.08
O      17.40      27.84      10.14
H       9.32      25.07      13.68
H      10.99      26.52      17.38
H      13.00      26.23      11.56
H      14.67      27.68      15.26
O       5.72      24.15      16.86
O       6.59      24.91      18.80
C      17.34      28.06      11.39
C       6.65      24.69      17.55
C       7.91      25.09      16.82
C       8.08      24.88      15.42
C       9.24      25.25      14.75
C      10.30      25.84      15.44
C      10.17      26.06      16.82
C       9.01      25.69      17.49
C      11.49      26.22      14.76
C      12.51      26.54      14.18
C      13.69      26.91      13.50
C      13.82      26.69      12.11
C      14.98      27.06      11.45
C      16.09      27.67      12.12
C      15.92      27.87      13.52
C      14.75      27.51      14.19
Br       6.78      24.10      14.25
Br       9.09      26.09      19.36
Br      14.90      26.66       9.58
Br      17.21      28.65      14.69
