15

C      -0.32      12.36       1.27
H      -0.19       9.41       2.71
H      -2.67       9.68       2.64
C      -0.64      10.30       2.27
C      -2.03      10.45       2.23
N       0.21      11.23       1.78
H      -2.07      13.51       0.77
C      -2.57      11.61       1.65
H       0.39      13.09       0.89
N      -4.52      12.95       0.95
C      -1.68      12.58       1.19
N      -5.82      12.75       0.94
N      -6.11      11.55       1.46
N      -4.98      10.94       1.81
C      -4.01      11.82       1.49
