38

C      10.86       9.74       6.95
C      10.19      11.07       6.70
H      11.91      12.14       7.22
C      10.45      13.48       6.58
C      10.75      14.54       7.46
H       9.22      18.03       6.61
C       9.71      13.75       5.42
C       9.24      15.03       5.15
C      10.29      15.82       7.19
C       9.53      16.08       6.04
C       8.68      17.98       4.66
C       8.34      19.44       4.82
C       9.31      20.36       5.24
C       7.05      19.88       4.53
C       8.94      21.70       5.34
C       6.76      21.23       4.69
N      11.90       7.15       7.07
N      10.94      12.19       6.86
N       9.10      17.40       5.82
N       7.69      22.13       5.08
H      13.79       8.03       7.03
C      10.02       8.63       7.07
H       9.95       6.47       7.15
H      12.97      10.34       6.93
H       8.94       8.77       7.07
H      11.34      14.34       8.36
H       9.48      12.94       4.74
H       8.68      15.24       4.25
C      12.24       9.53       6.98
H      10.55      16.64       7.86
C      12.72       8.22       7.04
O       8.57      17.41       3.57
H      10.33      20.05       5.47
O       9.00      11.08       6.33
C      10.57       7.36       7.12
H       6.27      19.18       4.24
H       9.65      22.46       5.67
H       5.76      21.61       4.52
