30

C       6.81       8.08      22.13
C       8.01       8.16      19.88
Br       3.92       7.84      22.30
Br       9.74       8.22      22.17
Cl       8.63       9.31      18.68
Cl       7.89      10.48      21.41
O       7.54       6.48      15.05
H       5.38       6.00      20.31
H       6.11       6.08      22.54
H       5.76       9.63      19.59
H       4.54       8.34      19.61
O       5.92      10.24      26.20
H       5.40       9.74      21.89
H       8.71       7.32      19.84
H       7.05       5.53      19.94
H       7.82       6.18      22.08
O       8.17       9.92      26.38
O       5.32       5.98      15.18
C       6.92       8.45      23.53
C       6.47       7.31      18.14
C       6.38       7.01      16.97
C       7.02       9.74      25.83
C       6.42       6.47      15.64
C       8.02       8.71      21.33
C       6.43       6.31      20.38
C       5.52       8.64      20.00
C       5.51       8.71      21.53
C       6.99       8.94      24.64
C       6.59       7.62      19.55
C       6.82       6.56      21.85
