38

H       2.05      27.76       9.54
H       2.05      29.49       6.99
H       3.44      22.77       7.07
H       3.77      24.83       9.35
H       0.53      24.71       4.11
H       0.17      27.59       5.09
H       0.17      29.66      11.44
H       0.53      32.54      12.42
H       3.77      32.42       7.18
H       3.44      34.48       9.45
C       1.98      34.02      11.26
C       1.98      23.23       5.26
C       1.99      24.43       6.04
C       1.29      25.59       5.61
C       1.33      26.77       6.35
C       1.99      26.82       7.60
C       2.66      25.65       8.05
C       2.70      24.50       7.27
C       1.98      27.98       8.47
C       1.98      29.27       8.05
C       2.66      31.59       8.48
C       1.99      30.43       8.92
C       1.33      30.48      10.18
C       1.29      31.66      10.92
C       1.99      32.81      10.49
C       2.70      32.75       9.26
O       2.90      34.92      11.05
O       1.06      34.20      12.17
O       2.90      22.32       5.48
O       1.06      23.05       4.36
O       3.40      23.45       7.79
O       3.31      25.69       9.25
O       0.59      25.64       4.44
O       0.67      27.87       5.88
O       0.67      29.38      10.65
O       0.59      31.61      12.09
O       3.31      31.56       7.28
O       3.40      33.80       8.74
