16

F      18.56      13.34      10.72
C      18.57      19.31       9.79
S      18.56      15.72      13.82
S      18.56      16.54       9.71
O      18.60      19.18       8.52
O      18.57      11.85      13.12
O      18.56      20.40      10.46
H      18.56      18.78      12.61
C      18.56      14.34      11.61
C      18.56      17.93      11.94
C      18.56      14.19      12.99
C      18.56      18.06      10.57
C      18.56      16.57      12.32
C      18.56      15.70      11.21
C      18.55      12.95      13.77
O      18.53      13.09      15.05
