30

C      40.65      11.12      15.84
C      39.54      10.58      14.96
C      38.67       9.47      15.58
C      37.97       8.83      14.39
C      38.85       9.15      13.13
C      40.04       9.96      13.64
C      37.69       9.98      12.52
C      36.99       9.34      11.32
C      36.15       8.21      11.94
C      35.62       8.82      13.25
C      36.80       9.65      13.77
C      35.08       7.62      11.05
O      41.59      11.74      15.23
H      38.90      11.45      14.72
O      34.11       7.04      11.64
O      35.24       7.73       9.79
O      40.55      10.94      17.09
H      39.32       8.74      16.09
H      37.97       9.86      16.34
H      37.72       7.77      14.57
H      40.39      10.72      12.92
H      40.90       9.30      13.85
H      39.16       8.29      12.51
H      37.94      11.04      12.35
H      37.69       8.97      10.55
H      36.32      10.06      10.83
H      36.81       7.36      12.19
H      34.76       9.46      13.03
H      36.47      10.50      14.39
H      35.28       8.05      13.97
