16

O       3.16       3.30       8.78
O       5.43      -3.64       8.44
O       5.42       3.31       8.91
O       3.17      -3.64       8.31
H       6.38       1.13       8.19
H       2.21      -1.46       9.02
H       6.37      -1.37       7.97
H       2.22       1.04       9.25
C       4.29       2.72       8.81
C       4.29      -3.06       8.40
C       5.47      -0.84       8.26
C       3.12       0.50       8.96
C       4.29      -1.56       8.49
C       4.29       1.23       8.73
C       5.47       0.55       8.38
C       3.12      -0.88       8.84
