28

C      13.46      18.39      16.04
C      15.59      16.08      18.36
C      14.22      17.65      16.86
C      14.91      16.93      17.59
C      14.76      20.53      13.41
H       9.90      19.62      15.13
C      13.93      14.21      20.93
H      18.92      14.11      19.28
H      14.90      19.46      13.65
H      14.68      21.11      14.33
H      15.59      20.89      12.80
H      13.72      14.66      19.95
N      11.31      21.03      12.59
H      14.46      14.94      21.56
H      13.00      13.91      21.42
N      16.85      12.18      20.87
C      12.39      20.50      13.18
C      16.01      13.14      20.49
N      10.21      20.72      13.34
N      18.11      12.51      20.42
O      13.58      20.72      12.59
O      14.71      13.01      20.80
C      10.61      19.98      14.39
C      18.04      13.68      19.75
C      12.00      19.78      14.35
C      16.71      14.14      19.74
C      12.78      19.05      15.24
C      16.17      15.21      19.03
