28

H      38.57      23.49       4.55
H      36.80      22.46       5.99
H      31.74      19.16       5.13
H      30.05      18.10       6.65
H      32.45      19.13      10.06
O      39.80      23.87       2.50
O      38.83      22.99       0.63
H      36.85      21.63       1.08
H      35.07      20.59       2.51
H      34.15      20.20       8.55
O      29.12      17.40       8.77
O      30.39      17.92      10.59
C      38.89      23.21       1.89
C      37.81      22.61       2.73
C      37.80      22.85       4.12
C      36.82      22.28       4.91
C      35.82      21.45       4.34
C      34.84      20.86       5.16
C      34.01      20.34       5.89
C      33.05      19.75       6.74
C      31.89      19.15       6.21
C      30.95      18.56       7.05
C      31.16      18.55       8.44
C      32.31      19.14       8.98
C      33.25      19.74       8.14
C      30.15      17.91       9.34
C      35.84      21.23       2.95
C      36.82      21.80       2.15
