20

H       4.25       6.90       5.88
H       3.33       5.39       5.84
C       6.75       5.88       4.09
H       6.63       6.88       6.06
H       7.50       5.33       6.09
C       4.34       5.86       3.93
H       4.53       3.27       5.90
H       6.29       3.27       6.03
C       5.56       3.77       4.01
C       4.24       5.88       5.47
C       6.66       5.86       5.63
C       5.44       3.77       5.55
N       5.58       5.17       3.50
N       5.41       5.17       6.06
H       6.75       6.90       3.69
H       7.66       5.39       3.73
H       3.49       5.33       3.47
H       4.37       6.88       3.51
H       6.47       3.27       3.66
H       4.70       3.27       3.54
