18

C       3.67      -1.26       6.22
C       6.04      -8.14       7.93
C       4.13      -2.58       6.07
C       4.52      -3.75       6.12
H       4.74       0.05       4.72
C       5.02      -4.99       6.27
C       5.53      -6.08       6.53
H       2.20      -1.40       7.91
N       3.38       0.97       6.07
H       5.13      -8.31       8.50
N       7.15      -8.88       8.15
H       8.24      -6.93       5.81
N       8.13      -8.44       7.31
N       2.57       0.51       7.09
C       7.64      -7.44       6.56
C       2.74      -0.81       7.18
C       4.04      -0.08       5.54
C       6.30      -7.18       6.93
