16

H       1.89      19.61       3.09
C       1.99      23.39       7.72
C       2.00      16.88       3.94
C       1.96      20.83       7.50
C       1.93      19.42       4.16
C       1.99      22.11       6.98
C       1.98      18.15       4.70
C       2.00      20.40       5.19
C       2.02      19.85       6.48
S       2.06      22.12       5.24
S       2.08      18.13       6.44
Br       1.93      20.40       9.33
O       2.92      24.22       7.44
O       1.06      23.59       8.56
O       2.93      16.05       4.20
O       1.07      16.70       3.08
