16

C       2.44       8.29      10.34
C       3.70       7.28      12.25
C       2.51       7.38      11.52
C       3.79       6.41      13.33
C       2.75       4.70      14.85
H       0.48       6.67      11.28
O       3.54       8.53       9.76
H       4.70       6.34      13.92
O       1.30       8.74       9.99
H       4.55       7.89      11.95
H       0.65       5.07      13.21
O       1.62       4.30      15.30
O       3.89       4.42      15.34
C       1.40       6.59      11.87
C       1.49       5.71      12.94
C       2.68       5.62      13.68
