16

O       6.31       3.49       5.28
H       3.02      -1.23       5.41
O       6.31      -3.44       5.43
H       3.02       1.28       5.30
H       7.32       1.28       5.30
H       7.32      -1.23       5.41
C       3.95      -0.67       5.38
C       3.96       0.72       5.32
C       6.38       0.72       5.33
C       6.38      -0.67       5.38
C       5.17      -1.38       5.41
C       5.17      -2.87       5.43
C       5.17       1.42       5.30
C       5.17       2.91       5.27
O       4.03      -3.44       5.43
O       4.03       3.49       5.28
