32

H       1.35       2.08      11.78
H       1.64       1.49      14.21
H      -2.47       2.55      14.90
H       2.92       1.96      17.96
H      -1.19       0.70      18.13
H      -0.89       0.17      20.58
H      -3.18       3.27      11.40
H      -3.82       3.21      13.03
H       3.63       1.22      21.46
H       4.26       1.84      19.94
C       1.21       0.47      22.09
C      -0.72       3.08      10.55
C      -0.69       2.69      11.97
C       0.53       2.21      12.49
C       0.70       1.89      13.82
C      -0.40       2.06      14.69
C      -1.63       2.47      14.20
C      -1.82       2.80      12.83
C       2.09       1.58      18.55
C       0.85       1.40      17.93
C      -0.25       0.88      18.65
C      -0.07       0.59      19.99
C       1.15       0.79      20.66
C       2.27       1.30      19.93
N      -0.36       1.79      16.08
N       0.81       1.72      16.56
N      -3.03       3.23      12.40
N       3.48       1.54      20.50
O       0.10       0.21      22.68
O      -1.87       3.22       9.98
O       0.40       3.29       9.97
O       2.35       0.45      22.68
