26

H       4.00       1.46      10.49
H       2.60       1.26       9.42
H       2.81      -1.05       9.83
H       4.41      -0.84      10.56
H       2.61      -0.90       7.31
H       4.03      -1.11       6.28
H       2.86       1.41       6.92
H       4.47       1.18       6.22
H       6.34       1.24       9.44
H       6.54       1.40       7.71
H       6.34      -0.92       7.38
H       6.51      -1.09       9.12
C       4.40      -2.66       8.42
C       4.45       2.99       8.34
C       3.65       0.97       9.57
C       3.79      -0.57       9.69
C       4.46      -1.14       8.42
C       3.67      -0.62       7.19
C       3.83       0.92       7.07
C       4.48       1.47       8.37
C       5.91       0.93       8.48
C       5.90      -0.61       8.34
O       3.25      -3.19       8.54
O       3.31       3.55       8.47
O       5.55       3.61       8.21
O       5.50      -3.29       8.27
