18

O      14.17      10.87       4.84
O      10.34      13.65       8.61
C      13.71      11.63       5.86
C      10.80      12.90       7.58
C      14.54      12.30       6.77
C       9.97      12.23       6.68
C      12.16      12.69       7.27
C      12.35      11.86       6.15
O      16.58      11.58       5.93
O       7.93      12.81       7.61
C       8.51      12.16       6.67
S      13.65      13.20       7.97
S      10.85      11.35       5.46
H      13.40      10.50       4.36
H      11.10      14.00       9.11
C      16.00      12.28       6.83
O       7.94      11.47       5.76
O      16.57      12.95       7.76
