19

H       6.45       4.95      10.59
H       2.14       7.72      14.97
H       1.33       6.76      13.73
H       2.12       8.27      13.26
C       4.46       6.38      16.00
C       4.58       5.82       8.56
C       3.46       6.65      13.65
C       5.52       5.42      10.91
C       4.42       6.20      14.55
C       4.56       5.87      10.02
C       5.11       5.66      12.24
C       3.87       6.31      12.33
C       2.20       7.40      13.93
S       5.78       5.40      13.80
S       3.17       6.58      10.78
O       5.57       6.19      16.59
O       5.69       5.54       7.97
O       3.47       6.05       7.97
O       3.38       6.74      16.59
