53

N      20.08       6.26      20.90
N      19.31      17.02      28.03
N      20.33      17.30      28.91
Si      23.02      11.49      25.02
H      24.14      15.10      19.50
H      25.91      16.26      23.28
H      24.94       7.29      28.64
H      28.68       8.37      26.74
H      21.76       7.55      20.97
N      23.00      12.17      22.37
N      23.43      13.10      21.58
N      23.47      12.46      23.65
N      20.63      10.12      25.22
N      19.99       9.17      24.62
N      21.80      10.35      24.50
N      23.28      12.85      27.33
N      22.78      13.86      27.95
N      22.41      12.52      26.29
N      25.69      10.93      25.13
N      26.52      10.13      25.72
N      24.42      10.63      25.61
H      18.30       6.96      23.51
H      22.17      16.34      29.38
H      18.93      15.48      26.64
H      24.69      14.02      24.48
H      22.67       9.52      22.72
H      20.56      13.33      25.56
H      23.63       9.23      27.03
C      24.66      15.58      20.31
C      24.77      15.18      21.65
C      25.56      16.17      22.25
C      25.96       7.38      28.29
C      26.52       8.28      27.37
C      27.88       7.94      27.33
C      20.84       7.23      21.45
C      20.24       7.70      22.63
C      19.07       6.93      22.74
C      21.26      16.33      28.79
C      20.85      15.40      27.82
C      19.61      15.88      27.38
C      24.18      14.02      22.28
C      24.21      13.61      23.60
C      20.71       8.74      23.51
C      21.86       9.49      23.44
C      21.59      14.25      27.35
C      21.36      13.39      26.29
C      25.84       9.30      26.59
C      24.50       9.62      26.52
N      25.90      17.10      21.33
N      25.34      16.73      20.13
N      28.11       6.91      28.17
N      26.92       6.57      28.77
N      18.99       6.07      21.70
