74

C       8.30      14.96      27.39
H      11.60      16.89      31.88
H       8.83      18.48      25.86
C      10.10      17.30      34.44
C       9.94      17.39      23.30
C      12.00      19.59      36.79
C      10.97      20.18      20.95
H      10.88      17.25      29.56
H       9.51      18.04      28.18
C      10.42      18.39      35.23
C      10.72      18.22      22.50
N      10.64      15.07      33.57
H      11.91      10.65      33.43
H       3.27      15.64      24.31
N       7.74      16.75      24.17
H       8.00      14.06      29.95
H       8.18      13.96      27.79
C      12.54      17.35      35.79
C       8.77      19.54      21.94
H      11.53      12.85      32.33
H       5.37      16.41      25.41
C      11.47      10.00      36.04
O      12.17       9.14      35.41
C       2.93      14.93      21.70
C      11.64      18.43      35.92
O       1.84      15.11      22.33
C      10.14      19.30      21.82
H      10.42      12.22      37.14
H       5.37      15.13      20.60
C      11.19      11.29      35.36
O      10.99       9.86      37.22
C       4.19      15.34      22.38
C      10.23      15.25      32.23
O       3.05      14.45      20.52
C       8.10      16.48      25.51
H      12.89      15.41      34.94
H       6.90      18.86      22.80
C      11.49      11.48      34.00
O      11.05      20.40      37.10
C       4.20      15.69      23.74
C       9.23      14.45      31.66
O      12.14      19.77      20.64
C       7.90      15.21      26.08
H       9.15      17.27      33.90
H      10.39      16.56      23.84
C      11.28      12.71      33.39
O      13.22      19.67      37.16
C       5.37      16.13      24.35
C      10.48      13.61      35.50
O      10.44      21.28      20.57
C       6.55      15.88      22.24
H       9.73      19.22      35.35
H      11.79      18.03      22.39
C      10.66      12.37      36.09
C       5.38      15.42      21.65
C      10.80      16.27      31.45
C       8.69      17.49      26.29
H      13.50      17.40      36.31
H       8.33      20.39      21.43
C      10.79      13.79      34.14
C       6.56      16.25      23.60
C      10.38      16.48      30.15
C       9.09      17.23      27.59
H       8.77      13.66      32.25
H       7.45      14.42      25.49
C      12.20      16.25      35.02
C       7.98      18.69      22.71
C       9.37      15.70      29.56
C       8.92      15.96      28.18
H      10.09      14.44      36.08
H       7.47      15.96      21.66
C      10.98      16.21      34.34
C       8.56      17.61      23.40
C       8.81      14.67      30.35
