38

H      -2.11      -0.72      22.97
H      -2.18      -0.48      20.71
H       2.34       1.54      20.84
H       1.12       1.14      22.98
H       2.40       1.00      25.58
H       1.40      -0.46      28.85
H       5.94       1.49      28.44
H       4.43       1.50      26.47
H      -1.37      -2.26      27.21
C      -1.41      -1.32      25.28
C      -0.73      -0.44      24.41
C      -0.58       0.23      21.99
C      -1.19      -0.03      20.76
C      -0.53       0.20      19.54
C       0.80       0.73      19.59
C       1.34       1.09      20.84
C       0.68       0.87      22.03
C       1.69       0.80      18.42
C       0.85      -0.17      26.05
C       2.81       0.48      27.52
C       2.39      -0.03      28.75
C       3.21       0.02      29.89
C       4.54       0.54      29.76
C       4.93       1.08      28.51
C       4.09       1.08      27.42
C       5.52       0.54      30.85
C      -0.87      -1.58      26.52
N      -1.24      -0.21      23.15
N       0.40       0.14      24.82
N       2.03       0.47      26.37
N       0.28      -1.01      26.93
O       2.86       1.30      18.52
O       1.28       0.29      17.30
O      -1.15      -0.11      18.39
O       6.69       1.02      30.69
O       5.19       0.02      32.00
O       2.68      -0.40      31.04
F      -2.58      -1.90      24.86
