19

H      29.07      18.46      11.18
C      24.38      15.32      13.08
H      24.19      14.28      12.79
S      28.46      15.75      12.96
H      24.10      15.39      14.14
S      25.43      18.06      11.25
H      23.73      15.98      12.50
C      26.96      13.83      14.23
O      28.12      13.36      14.52
O      25.84      13.35      14.60
C      26.97      20.03      10.05
O      25.83      20.46       9.64
O      28.11      20.56       9.84
C      25.82      15.70      12.88
C      28.05      18.12      11.35
C      26.93      15.03      13.39
C      26.95      18.80      10.84
C      27.65      16.99      12.08
C      26.25      16.82      12.13
