24

S      17.82      20.90      27.45
H      20.39      16.61      27.56
S      22.66      17.05      29.11
H      19.93      21.24      29.22
H      16.41      19.37      27.58
H      22.63      17.68      31.09
C      18.19      17.69      26.64
C      22.04      20.10      30.28
O      18.61      16.68      26.00
O      16.98      18.12      26.60
O      22.02      21.37      30.32
O      22.76      19.36      31.05
O      16.48      20.26      28.05
O      18.03      22.12      28.17
O      17.79      20.87      26.02
O      22.52      16.77      30.67
O      22.41      15.80      28.45
O      23.85      17.81      28.83
C      19.18      18.38      27.53
C      21.11      19.45      29.30
C      19.07      19.71      27.99
C      21.25      18.13      28.80
C      20.02      20.22      28.87
C      20.28      17.62      27.94
