36

H      17.29       7.11      12.05
H      17.38      11.42      12.11
H      17.56       7.14       7.73
H      17.43      11.44       7.73
N      17.06       6.78      14.61
N      17.23      11.68      14.68
N      17.64       6.84       5.16
N      17.43      11.74       5.16
O      17.64      10.42       2.94
O      17.52       8.17       2.93
O      16.77      10.32      16.85
O      17.07       8.09      16.85
H      17.14       6.74      15.62
H      17.23       5.96      14.05
H      16.96      11.70      15.66
H      17.15      12.52      14.12
H      17.54       6.81       4.15
H      17.54       6.01       5.72
H      17.59      11.78       4.16
H      17.54      12.57       5.73
C      17.57       9.29       3.57
C      16.98       9.21      16.22
C      17.11       9.23      14.77
C      17.16       8.00      14.01
C      17.27       8.04      12.61
C      17.34       9.27      11.93
C      17.31      10.47      12.64
C      17.20      10.48      14.04
C      17.41       9.28      10.52
C      17.46       9.29       9.30
C      17.49       9.29       7.88
C      17.54       8.08       7.18
C      17.56       8.06       5.78
C      17.54       9.29       5.03
C      17.49      10.53       5.78
C      17.47      10.50       7.18
