30

C      -1.23       3.99       8.13
C      -1.48       3.87       6.61
C      -0.65       3.44       3.25
C       0.29       3.89       8.42
C       0.76       4.91       6.14
C      -0.14       3.68       5.85
C       0.56       2.41       6.38
C       0.84       2.54       7.89
C      -0.40       3.56       4.43
C       0.54       4.03       9.84
C       0.78       4.18      11.02
C      -1.12       3.14       1.92
O       0.92       5.64      12.81
O       1.94       3.60      12.94
H       0.27       5.81       5.73
H       0.61       6.00       8.04
H      -1.75       3.19       8.68
H      -1.60       4.95       8.52
H      -1.98       4.76       6.21
H      -2.13       3.01       6.39
H       1.91       2.50       8.11
H       0.37       1.73       8.47
H       1.50       2.26       5.81
H       2.07       5.01       7.89
H       1.71       4.79       5.59
H      -0.08       1.54       6.16
O      -0.78       2.03       1.41
O      -1.91       4.01       1.39
C       1.22       4.50      12.35
C       1.00       5.05       7.66
