17

O       2.44       5.27       5.93
H      -0.83       0.57       6.51
O       2.35      -1.72       5.85
H       3.40       0.51       5.67
O       0.11      -1.65       6.21
H      -0.78       3.06       6.55
O       0.23       5.28       6.37
O       3.70       3.07       5.64
H       3.53       4.05       5.70
C       1.31       4.67       6.15
C       1.25      -1.10       6.05
C       1.32       3.19       6.13
C       1.28       0.39       6.09
C       2.52       2.47       5.88
C       0.10       1.11       6.34
C       2.48       1.07       5.87
C       0.13       2.49       6.37
