30

C       1.96      12.12       4.52
C       0.09      14.39       2.11
H      -1.10      14.50       4.53
C       4.98       8.62      11.86
H       2.15      12.67       2.44
C       4.23       9.01      10.62
O       4.40       8.81      12.98
H       2.84      11.48       4.50
C       2.98       9.64      10.69
O       6.15       8.16      11.69
C       2.38      10.14       9.54
O      -0.96      15.11       2.18
H       3.05      10.30       6.16
C       3.00      10.00       8.28
O       0.84      14.25       1.09
C       4.20       9.26       8.21
C       4.82       8.79       9.37
C       2.52      10.62       7.06
C       1.59      11.60       6.95
H       2.50       9.75      11.66
H       1.06      11.94       7.85
H       1.42      10.65       9.63
C       1.23      12.28       5.72
H       4.68       9.12       7.24
C       0.13      13.16       5.70
H       5.78       8.28       9.32
C      -0.25      13.83       4.54
C       0.48      13.65       3.35
C       1.59      12.79       3.36
H      -0.43      13.31       6.63
