50

C       4.22       8.09       9.72
C       3.70       9.25      10.31
C       5.36       9.46       8.08
C       4.80      10.63       8.62
C       3.99      10.51       9.77
C       5.07       8.21       8.61
C       5.01      11.92       7.94
C       5.00      11.94       6.54
C       5.59      11.98       3.62
C       5.55      11.97       2.22
C       3.86       6.74      10.22
C       5.90      10.74       1.45
C       6.18      18.16       9.72
C       6.70      17.00      10.31
C       5.05      16.79       8.08
C       5.61      15.62       8.62
C       6.41      15.74       9.77
C       5.33      18.04       8.61
C       5.39      14.33       7.94
C       5.40      14.31       6.54
C       4.82      14.27       3.62
C       4.85      14.28       2.22
C       6.54      19.51      10.22
C       4.51      15.51       1.45
C       5.20      13.13       8.64
C       5.20      13.13       5.82
H       3.05       9.17      11.18
H       3.54      11.40      10.21
H       5.49       7.30       8.17
H       6.03       9.53       7.22
H       4.79      11.01       6.01
C       5.20      13.13       4.34
H       5.92      11.08       4.14
C       5.20      13.12       1.52
H       5.61      15.24       6.01
H       4.48      15.17       4.14
H       4.38      16.72       7.22
H       6.86      14.85      10.21
H       7.35      17.09      11.18
H       4.91      18.95       8.17
H       5.20      13.13       9.73
H       5.20      13.12       0.43
O       4.28       5.74       9.52
O       6.61       9.85       2.03
O       3.15       6.65      11.28
O       5.44      10.68       0.26
O       6.12      20.51       9.52
O       3.79      16.39       2.03
O       7.25      19.60      11.28
O       4.96      15.57       0.26
