15

C       4.68       5.59      13.12
C       5.76       9.64      11.86
C       4.86       8.07      10.18
C       5.23       9.33      10.57
C       4.84       6.87      10.99
C       4.70       6.84      12.33
O       4.81       4.47      12.52
N       6.24       9.90      12.89
H       4.88       5.91      10.45
O       5.18      11.63      10.19
O       4.54       5.77      14.38
H       4.59       7.75      12.92
H       4.56       7.98       9.14
O       4.87      10.25       8.41
C       5.08      10.49       9.64
