55

H       3.00       1.81       6.38
H       3.24       2.63      -1.64
H       2.88       9.20       3.08
H       1.12       6.39      -1.69
H       3.36       2.69      -4.15
H       2.92      11.32       4.43
H       0.77       7.24       6.30
H       0.95      -0.10       3.09
H       3.07      -0.38       7.59
H       0.60      -3.09       4.95
H       0.42      10.30       8.05
H       0.87       6.31      -5.21
C       1.97      -2.69       6.82
C       2.26       4.49      -5.78
C       1.81      11.75       6.81
C       2.55       0.92       5.95
C       1.98       0.97       4.66
C       2.78       3.44      -2.21
C       2.18       4.51      -1.53
C       1.83       8.10       4.63
C       2.41       9.26       4.06
C       1.59       5.57      -2.22
C       1.54       5.54      -3.62
C       2.21       4.50      -4.32
C       2.84       3.47      -3.59
C       2.42      10.43       4.80
C       1.77      10.50       6.05
C       1.13       9.35       6.58
C       1.22       8.14       5.88
C       1.39      -0.15       4.09
C       1.30      -1.34       4.82
C       1.94      -1.43       6.08
C       2.57      -0.29       6.62
C       1.93       4.53       3.99
C       2.09       3.31       1.89
C       2.00       2.25       3.91
C       1.89       6.82       3.90
C       2.03       5.75       1.88
C       2.14       4.52      -0.05
N       2.02       4.53       2.59
N       2.05       2.16       2.57
N       1.96       3.37       4.65
N       1.83       5.70       4.64
N       2.01       6.90       2.56
N       2.19       3.32       0.56
N       2.06       5.73       0.55
O       0.90      11.94       7.72
O       1.05      -3.57       6.55
O       1.35       5.17      -6.42
O       2.73      12.60       6.57
O       3.18       3.85      -6.38
O       2.89      -2.89       7.69
O       0.63      -2.37       4.26
O       0.45       9.36       7.75
O       0.88       6.54      -4.25
