40

C      18.98      -1.07       6.65
C      20.21      -1.64       7.08
C      21.44      -0.97       6.84
C      21.41       0.26       6.18
H      18.06       4.53       3.70
H      22.35       4.54       3.71
H      18.07       0.59       5.62
H      22.35       0.79       6.00
C      17.60       6.79       2.47
C      22.82       6.80       2.48
C      17.64      -1.72       6.86
C      22.78      -1.49       7.27
H      16.84       6.12       2.90
H      17.43       6.88       1.39
H      17.45       7.80       2.89
H      23.58       6.08       2.82
H      22.99       7.75       2.99
H      22.96       7.00       1.41
H      17.33      -1.66       7.91
H      17.65      -2.78       6.60
H      16.88      -1.22       6.24
H      23.09      -2.35       6.66
H      22.77      -1.85       8.31
H      23.54      -0.71       7.18
O      19.21      -3.21       8.56
O      21.20      -3.73       7.60
O      21.33       8.77       1.52
O      19.08       8.67       1.34
C      20.21      -2.95       7.80
C      20.21       8.19       1.72
C      20.21       6.88       2.43
C      18.97       6.25       2.78
C      19.00       5.02       3.44
C      20.21       4.39       3.79
C      21.41       5.02       3.45
C      21.44       6.25       2.78
C      20.21       3.15       4.47
C      20.21       2.08       5.05
C      20.21       0.84       5.73
C      19.01       0.15       5.97
