18

O       3.41       3.44      14.62
O       5.66       3.47      14.31
O       5.81      -3.54      14.60
H       2.43       1.14      14.48
O       3.59      -3.53      14.24
H       2.56      -1.37      14.45
C       4.71      -2.92      14.41
C       4.54       2.87      14.46
H       6.71       1.33      14.39
N       7.16      -1.26      14.38
C       4.71      -1.44      14.41
C       4.58       1.37      14.43
C       5.91      -0.68      14.41
C       3.39       0.62      14.45
C       5.81       0.73      14.41
C       3.47      -0.76      14.43
H       7.16      -2.25      14.65
H       7.93      -0.69      14.69
