27

C       7.83       7.56       1.79
H       7.56       8.55       1.41
C       9.07       7.34       2.38
H       9.81       8.13       2.48
C       9.37       6.07       2.87
H       8.72       4.03       3.13
O       5.33       7.96       0.63
C       8.46       5.01       2.75
H       6.48       4.45       2.07
O       4.71       5.82       1.06
C       7.22       5.25       2.17
O      10.63       5.87       3.41
H      12.76       4.69       4.19
C      10.74       5.26       4.64
C      11.97       4.67       4.95
H      13.11       3.60       6.43
O      12.49       2.99       8.76
C      12.16       4.07       6.19
H       9.12       4.68       7.57
O      10.29       3.30       9.22
H       8.76       5.77       5.36
C      11.13       4.06       7.14
C       9.91       4.67       6.83
C       9.71       5.28       5.59
C      11.32       3.40       8.47
C       5.54       6.79       1.08
C       6.89       6.53       1.69
