18

O       9.67       7.61       6.96
C      10.55       8.23      10.44
C      10.95       6.13      11.58
O      11.45       3.35      11.12
H      10.55       9.31      10.44
C      10.14       6.13       9.30
H      11.27       5.58      12.47
O       9.64       3.35       9.76
H       9.82       5.58       8.41
C      10.55       5.43      10.44
C      11.28       8.26      12.84
C      10.55       3.93      10.44
C       9.81       8.26       8.04
O      11.41       9.54      12.82
O       9.68       9.54       8.06
C      10.93       7.53      11.59
C      10.16       7.53       9.29
O      11.42       7.61      13.92
