26

C       2.22      11.95       2.55
H       3.36       5.10       2.30
C       1.33      13.92       3.81
H      -0.62       6.60       2.94
C       2.12      11.01       1.53
H      -0.20       8.27       1.11
S       0.64       9.94      -0.62
S       2.21       8.66      -0.58
H      -0.78      13.46       2.07
H       3.11      11.99       3.19
N      -0.05      11.89       0.94
H       2.92      10.30       1.32
N       2.78       6.66       1.07
C       1.16       4.72       3.86
O       0.29      14.57       4.16
C       1.36       5.74       2.78
O       2.51      14.10       4.26
C       2.55       5.78       2.06
O      -0.04       4.55       4.24
C       0.34       6.64       2.42
O       2.19       4.12       4.29
C       0.57       7.56       1.41
C       1.80       7.55       0.75
C       0.96      11.04       0.75
C       0.06      12.78       1.94
C       1.19      12.86       2.77
