16

O       7.01       1.43       0.72
O       8.09       0.79       2.64
C       3.76       2.89       5.76
C       1.53       4.12       6.15
S       2.52       3.68       3.61
C       2.61       3.55       5.34
C       4.02       2.86       3.45
C       4.85       2.47       2.38
C       4.58       2.49       4.69
S       6.10       1.69       4.53
O       0.60       4.72       5.49
O       1.60       3.98       7.42
C       6.01       1.84       2.79
C       7.12       1.31       1.98
F       4.08       2.65       7.04
F       4.53       2.72       1.10
