68

H       7.59       3.92       3.14
H       6.95       0.74       6.02
H      17.29       6.82      -1.54
H      16.00       3.36      -3.81
H       8.80      -3.21      -2.30
H       8.14      -1.31      -6.14
H      18.65      -3.31      -0.57
H      17.47      -1.26       3.06
H      13.14      -0.29       2.22
H      13.39       1.56      -1.68
H      11.68       3.35       1.86
H       9.74       0.24       0.23
H       9.47      -0.17       5.50
H      11.58      -0.71       3.84
H      14.55       6.99      -0.65
H      12.54       5.68       0.66
H      10.81      -0.05      -5.58
H      12.27       1.44      -3.82
H      17.26      -1.34      -1.96
H      14.95       0.07      -2.35
C       7.24       3.25       3.92
C       7.80       2.05       4.39
C       6.92       1.63       5.39
C      17.16       6.00      -2.24
C      16.12       5.06      -2.33
C      16.50       4.22      -3.39
C       8.48      -2.91      -3.30
C       8.89      -1.82      -4.08
C       8.15      -1.95      -5.27
C      18.54      -2.91       0.43
C      17.61      -1.98       0.93
C      17.93      -1.88       2.29
C      11.51       1.12       1.40
C      12.83       0.33       1.38
C      13.52       0.48       0.23
C      12.82       1.43      -0.76
C      11.91       2.58       1.13
C      12.63       2.74       0.00
C      10.74       0.66       0.15
C      11.44       0.81      -0.99
C       9.00       1.35       3.99
C       9.71       0.32       4.56
C      10.82       0.05       3.70
C      10.73       0.93       2.65
C      14.95       5.00      -1.49
C      14.30       5.94      -0.71
C      13.25       5.26      -0.04
C      13.30       3.94      -0.43
C       9.86      -0.81      -3.75
C      10.72      -0.04      -4.50
C      11.50       0.72      -3.58
C      11.07       0.39      -2.31
C      16.62      -1.29       0.14
C      16.53      -1.04      -1.21
C      15.34      -0.29      -1.40
C      14.76      -0.13      -0.17
N       5.91       2.52       5.52
N       6.11       3.52       4.61
N      17.69       4.63      -3.89
N      18.10       5.73      -3.17
N       7.37      -3.04      -5.20
N       7.57      -3.64      -3.98
N      18.97      -2.69       2.58
N      19.34      -3.32       1.43
O       9.62       1.74       2.82
O      14.33       3.78      -1.34
O      10.06      -0.55      -2.41
O      15.54      -0.74       0.79
