16

O      20.47       7.77       1.75
O      15.49       4.90       5.82
C      20.63       6.56       2.08
O      16.63       2.93       5.82
C      16.46       4.15       5.49
O      21.60       5.81       1.75
F      20.66       3.80       3.04
F      16.44       6.91       4.53
F      18.84       2.75       4.53
F      18.26       7.96       3.04
C      19.57       5.94       2.95
C      17.53       4.76       4.62
C      19.64       4.61       3.38
C      17.46       6.10       4.19
C      18.65       4.04       4.19
C      18.44       6.67       3.38
