34

H       9.67       8.63      10.19
H       9.12      13.57      10.09
H       7.38      12.80       5.70
H       7.12       9.24       5.54
H      10.32       9.13      12.85
H      10.95      14.39      10.62
C       7.63       7.98       8.64
C       7.47      13.77       8.20
C       7.62       9.48       8.57
C       8.55      10.27       9.31
C       6.69      10.09       7.72
C       9.55       9.71      10.15
C      10.41      10.52      10.88
C       7.53      12.28       8.32
C       6.68      11.49       7.56
C       8.46      11.69       9.22
C       9.29      12.49      10.05
C      10.26      11.94      10.85
C       5.77      12.13       6.54
C       5.73       9.28       6.88
C      11.57       9.88      11.60
C      11.06      12.78      11.80
O       6.54       7.40       8.90
O       6.34      14.31       8.42
O       8.55      14.37       7.92
O       8.73       7.40       8.38
O       6.41      12.84       5.56
O       4.56      12.03       6.53
O       6.19       8.95       5.64
O       4.61       8.95       7.22
O      11.27       9.06      12.64
O      12.72      10.01      11.22
O      11.25      14.09      11.52
O      11.49      12.31      12.84
