28

C      15.78       5.84      18.97
C      14.06       4.11      18.97
C      14.92       4.97      19.69
C      14.92       4.97      21.10
C      14.92       4.97      22.32
C      14.92       4.97      23.74
C      15.78       5.84      24.45
C      14.06       4.11      24.45
C      15.78       5.83      25.84
C      14.07       4.12      25.84
C      14.92       4.97      26.55
C      14.92       4.97      28.04
H      16.44       6.49      17.02
H      13.41       3.46      17.02
O      15.73       5.78      14.81
O      14.12       4.17      14.81
H      16.45       6.50      19.52
H      13.40       3.45      19.52
O      15.73       5.78      28.62
O      14.12       4.17      28.62
H      16.45       6.50      23.90
H      13.40       3.45      23.90
H      16.44       6.49      26.40
H      13.40       3.46      26.40
C      14.92       4.97      15.39
C      14.92       4.97      16.88
C      15.78       5.83      17.58
C      14.07       4.12      17.58
