44

O       2.66      19.51       4.08
H       2.88      17.76       3.25
H       2.76      16.05       3.15
H       3.11      13.67       5.58
O       0.86      20.07       5.31
H       0.70      19.72       7.21
H       1.02      18.87       8.67
H       1.15      15.58       9.39
H       0.11      16.93       9.13
H       3.89      14.68       4.48
H       3.11      14.49      10.69
H       2.88      10.40      13.01
H       2.76      12.11      13.11
H       1.15      12.59       6.87
H       0.11      11.23       7.13
H       0.70       8.45       9.06
H       1.02       9.29       7.59
H       3.89      13.49      11.78
C       1.79       8.93      11.28
C       1.79      19.23       4.98
C       1.85      17.94       5.66
C       1.35      17.80       6.99
C       1.48      16.57       7.67
C       2.03      15.45       6.99
C       2.50      15.58       5.66
C       2.45      16.82       5.00
C       2.50      12.58      10.60
C       2.03      12.72       9.27
C       1.48      11.60       8.59
C       1.35      10.37       9.28
C       1.85      10.23      10.60
C       2.45      11.35      11.26
N       2.09      14.16       7.49
N       2.09      14.01       8.77
N       2.99      16.87       3.72
N       3.00      14.47       4.96
N       0.74      18.83       7.69
N       1.03      16.51       8.99
N       3.00      13.69      11.30
N       2.99      11.30      12.54
N       1.03      11.65       7.27
N       0.74       9.34       8.57
O       2.66       8.65      12.19
O       0.86       8.09      10.95
