18

O       2.71       2.19       0.57
H       0.67       7.97       0.59
C       1.51       2.67       0.42
N      -1.56       6.48       0.39
O       4.44       6.97       0.26
C       0.00       4.63       0.47
C       1.31       4.14       0.51
C       2.39       5.03       0.58
H      -1.74       7.34       0.91
C      -0.24       6.00       0.51
C       3.29       7.39       0.63
H       3.41       4.65       0.58
H      -2.26       5.77       0.59
O       0.50       1.95       0.19
H      -0.83       3.92       0.40
C       2.15       6.41       0.63
C       0.84       6.89       0.59
O       3.04       8.60       0.96
