36

C      28.44      20.82      14.24
C      26.07      21.36      15.73
O      28.37      23.91      16.97
O      26.15      18.27      13.00
H      21.47      21.90      18.48
H      33.05      20.28      11.49
O      26.10      23.88      17.09
O      28.42      18.29      12.88
H      31.19      21.66      10.57
H      29.06      21.89      11.83
H      25.45      20.29      18.13
H      30.64      19.38      14.95
H      23.32      20.52      19.40
H      32.77      19.15      13.69
H      25.31      19.59      14.78
H      29.21      22.59      15.19
H      23.87      22.80      15.02
H      21.74      23.03      16.27
C      27.22      23.43      16.70
C      27.30      18.75      13.27
C      23.44      21.02      18.44
C      31.07      21.16      11.53
C      24.64      20.89      17.73
C      29.88      21.29      12.24
C      24.80      21.54      16.50
C      29.71      20.64      13.47
C      23.74      22.29      15.98
C      30.77      19.88      13.99
C      22.55      22.43      16.69
C      31.96      19.75      13.28
C      22.40      21.79      17.92
C      32.11      20.38      12.04
C      26.16      20.26      14.88
C      28.35      21.92      15.09
C      27.32      19.97      14.14
C      27.20      22.21      15.83
