16

Cl      29.95      15.97      27.20
Cl      29.95      22.19      29.56
O      33.66      18.47      26.03
O      32.70      16.40      26.02
S      31.76      19.82      27.67
C      32.73      17.63      26.34
S      28.11      18.34      29.07
O      26.16      19.73      30.61
C      27.17      20.52      30.45
O      27.30      21.70      30.93
C      30.44      17.56      27.55
C      29.45      20.59      29.23
C      31.63      18.17      27.14
C      28.26      19.99      29.63
C      30.24      19.71      28.46
C      29.64      18.45      28.30
