20

H      23.61       8.99      12.02
H      22.98      10.73      10.44
H      21.72      10.53       9.35
H      19.79       6.35      10.29
H      22.40       4.44      11.89
H      20.89       4.39      11.15
C      23.69       6.45      12.85
C      22.67       7.06      11.94
C      22.79       8.41      11.59
C      21.91       9.01      10.68
C      20.81       8.24      10.26
C      20.66       6.90      10.64
C      21.63       6.26      11.42
C      19.77       8.86       9.38
N      22.05      10.34      10.29
N      21.51       4.91      11.76
O      23.84       6.96      14.01
O      24.34       5.45      12.38
O      20.16       9.26       8.23
O      18.59       8.95       9.85
