34

H       9.16      12.55      11.12
H       9.29      21.63      11.41
H       9.38      15.01      11.35
H       6.16      21.24       8.43
H       6.46      15.35       8.16
H       7.57      19.59       7.77
H       7.64      17.13       7.70
H       8.35      17.04      11.96
H       8.29      19.50      12.02
H       5.48      24.90       8.33
H       6.22      11.67       7.64
H       8.98      24.10      11.25
C       8.38      23.42      10.65
C       8.58      13.22      10.50
C       8.54      22.03      10.73
C       8.68      14.60      10.62
C       7.77      21.19       9.91
C       7.93      15.43       9.77
C       6.84      21.81       9.07
C       7.10      14.80       8.84
C       6.72      23.20       9.05
C       7.05      13.41       8.76
C       7.73      19.03       8.69
C       7.77      17.65       8.66
C       7.98      16.90       9.83
C       7.90      19.72       9.90
C       8.20      17.59      11.03
C       8.16      18.99      11.07
C       5.67      23.82       8.17
C       6.19      12.77       7.71
N       7.49      23.99       9.82
N       7.77      12.62       9.59
O       5.51      13.46       6.95
O       5.05      23.16       7.34
