25

C      -5.98      -0.81       9.08
H      -5.35      -0.31       9.82
Cl      -8.27      -1.46       4.06
Cl      -6.93       0.35      11.71
H      -6.01      -1.88       9.35
H      -5.48      -0.72       8.11
O     -12.13       1.82       7.42
O      -5.79      -1.72       5.91
O      -7.14      -2.98       7.26
O     -11.05       2.83       5.70
H      -9.40       1.52      11.22
H     -10.71       1.84       9.16
H     -10.15       0.57       4.57
C      -7.35      -0.20       9.07
C      -7.84       0.40      10.23
C      -9.06       1.09      10.28
C      -9.79       1.27       9.13
C      -9.36       0.69       7.91
C      -8.17      -0.13       7.89
C      -7.85      -0.82       6.67
C      -8.59      -0.58       5.52
C      -9.64       0.35       5.50
C     -10.04       0.95       6.68
C      -6.83      -1.93       6.62
C     -11.16       1.94       6.60
