30

C      -3.76      11.89      11.33
N      -2.65       9.85      10.64
H      -2.30       6.85      12.17
C      -4.42      12.20      10.13
H      -4.71      19.16      11.56
H      -1.72       8.10      10.05
C      -4.86      13.50       9.89
H      -4.02      16.88      12.18
C      -5.04      18.30      10.97
C      -3.35      10.50      11.60
H      -6.32      15.43       8.81
C      -4.66      17.01      11.31
C      -3.69       9.87      12.80
H      -6.93      17.77       8.35
C      -5.07      15.91      10.53
C      -3.32       8.55      13.01
H      -3.75      14.98      12.76
C      -5.92      16.21       9.45
C      -2.61       7.88      12.01
H      -3.01      12.69      13.19
C      -6.27      17.52       9.18
C      -2.30       8.56      10.85
H      -4.64      11.42       9.40
C      -4.63      14.53      10.82
H      -5.36      13.69       8.94
C      -3.95      14.21      12.01
H      -4.29      10.42      13.53
C      -3.54      12.91      12.27
N      -5.83      18.57       9.91
H      -3.57       8.02      13.93
