26

N      16.17      12.36       2.56
O      14.42      15.40       1.56
O      20.99      14.99       1.37
O      22.22      13.39       2.45
O      18.35      10.28       5.33
O      16.82      11.96       5.59
H      16.18      15.10       2.55
H      13.16      12.83       1.33
H      13.75      10.23       1.94
H      16.32      10.25       2.86
H      21.61      12.59       4.61
H      20.43      11.54       5.46
H      21.24      10.98       3.99
C      15.28      14.67       2.05
C      15.19      13.22       2.04
C      14.09      12.43       1.72
C      14.39      11.09       2.06
C      15.68      11.07       2.56
C      17.52      12.67       2.82
C      19.88      13.30       2.57
C      21.11      13.94       2.11
C      19.70      12.40       3.63
C      20.80      11.86       4.48
C      18.32      12.09       3.80
C      17.78      11.37       4.99
S      18.41      13.65       1.74
