15

N       6.97       3.52      11.08
N      10.34       5.96      14.07
N      11.14       5.91      15.11
N      11.02       4.73      15.73
N      10.14       3.98      15.10
H       6.89       5.51      10.47
H       8.50       6.32      12.22
H       8.73       2.26      13.66
H       7.16       1.60      11.81
C       7.33       4.82      11.19
C       8.22       5.27      12.16
C       8.76       4.34      13.07
C       8.35       3.00      12.97
C       7.48       2.63      11.96
C       9.72       4.76      14.07
