16

C      18.33      11.03      10.62
O      19.15      10.17      10.15
C      14.49       9.20      16.81
O      13.63      10.04      17.24
O      18.03      12.17      10.10
H      16.36      12.42      12.16
H      16.54       7.85      15.35
O      14.71       8.03      17.28
C      16.67      11.45      12.52
C      16.25       8.83      14.99
C      17.62      10.69      11.87
S      17.93       9.16      12.65
C      16.76       9.51      13.87
C      16.17      10.78      13.66
S      14.99      11.13      14.87
C      15.28       9.59      15.63
