18

O       9.53      15.50      18.22
C      13.94      13.50      16.90
C      13.10      15.66      17.60
C      11.80      15.13      17.70
O      10.94      17.26      18.27
O      14.79      11.39      16.21
H      16.03      14.64      16.90
H      13.27      16.71      17.84
C      12.66      12.97      17.00
O      10.36      13.14      17.46
C      14.18      14.87      17.22
C      15.07      12.61      16.51
C      10.70      16.03      18.09
C      11.57      13.76      17.40
O      16.26      13.08      16.51
H       9.68      13.79      17.78
H      12.50      11.92      16.76
O      15.42      15.41      17.16
