48

O       4.18      13.06       1.77
O       4.58       6.90      -2.04
H       1.84      12.05      -1.98
H       4.83       7.28       2.42
H       5.04      10.81       5.59
H       1.61       8.48      -5.10
H       1.38      10.66      -3.89
H       5.08       8.60       4.42
H       2.87      12.42       0.22
H       4.35       7.08       0.03
H       5.47      12.58       0.19
H       6.24      13.34       1.62
H       5.05      15.50       1.11
H       6.03      14.97      -0.28
H       4.26      14.74      -0.30
H       6.17       8.26      -1.98
H       6.14       7.15      -3.39
H       6.58       5.21      -1.79
H       7.89       6.41      -1.80
H       6.73       6.37      -0.45
C       3.13       6.41      -4.45
C       4.59      13.23       4.47
C       3.03       7.68      -3.68
C       4.55      11.90       3.79
C       2.00       9.86      -3.49
C       4.83       9.52       3.88
C       2.14       8.67      -4.17
C       4.82      10.73       4.53
C       3.70       7.87      -2.46
C       4.28      11.84       2.43
C       3.42       9.02      -1.65
C       4.18      10.59       1.75
C       2.63      10.05      -2.23
C       4.53       9.43       2.50
C       3.87       9.17      -0.27
C       3.73      10.43       0.38
C       3.02      11.47      -0.30
C       4.30       8.05       0.50
C       2.45      11.27      -1.52
C       4.57       8.17       1.84
C       5.35      13.36       0.96
C       5.15      14.73       0.34
C       5.97       7.22      -2.30
C       6.84       6.24      -1.54
O       4.25       5.83      -4.56
O       3.48      13.85       4.60
O       2.04       6.00      -4.96
O       5.72      13.63       4.89
