24

N       1.61      10.87       5.51
N       4.11      10.67       6.40
O      -2.40      10.88       4.74
C      -1.71      10.22       3.90
C      -0.23      10.19       4.14
O      -2.14       9.58       2.89
C       0.31      10.89       5.22
O       8.70      10.56       5.75
C       2.46      10.15       4.74
O       8.05      10.40       7.93
C       1.99       9.42       3.64
H      -0.33      11.48       5.88
H       2.68       8.82       3.04
C       0.63       9.44       3.34
C       3.88      10.15       5.18
H       0.23       8.86       2.51
C       4.92       9.65       4.39
H       4.73       9.26       3.39
C       5.35      10.68       6.89
H       5.47      11.10       7.89
H       7.07       9.41       4.27
C       6.45      10.23       6.16
C       6.22       9.72       4.88
C       7.85      10.40       6.67
