20

C      24.20      -0.39      28.35
C      22.11       0.72      26.67
C      24.24      -0.49      26.97
C      22.07       0.81      28.09
C      23.23       0.05      26.17
C      23.08       0.27      28.90
C      25.04      -1.01      25.79
C      23.90      -0.40      24.88
H      23.01       0.38      29.98
H      26.03      -0.56      25.67
H      25.14      -2.10      25.74
H      23.33      -1.13      24.29
H      24.21       0.41      24.21
Cl      20.79       1.59      28.96
C      21.08       1.26      25.74
O      20.08       1.87      26.23
O      21.31       1.06      24.49
C      25.25      -0.95      29.24
O      25.11      -0.77      30.50
O      26.21      -1.56      28.66
