17

N       1.62      11.27       8.32
N       6.03      12.77       4.48
H       4.83      14.16       5.80
H       1.03      13.60       7.12
C       4.60      10.18       6.33
O       4.10       9.68       7.38
C       1.51      15.73       6.80
O       0.51      16.08       6.09
O       4.01      14.62       6.06
O       5.30       9.60       5.44
C       1.83      14.28       6.84
C       3.06      13.78       6.53
O       2.25      16.47       7.52
C       4.36      11.65       6.11
C       3.32      12.34       6.69
C       2.41      11.68       7.58
C       5.27      12.26       5.20
