14

O       5.71      10.93       7.58
C       6.59      10.09       9.58
H       7.42      10.79       9.45
C       3.43       8.99       7.76
O       3.42       9.62       6.65
C       5.58      10.09       8.58
C       4.50       9.16       8.76
O       2.49       8.15       8.02
Br       5.41       7.19      12.35
C       4.47       8.32       9.89
H       3.63       7.63       9.99
C       6.56       9.24      10.68
C       5.48       8.35      10.83
H       7.36       9.27      11.42
