27

O       8.74       1.42       6.17
O       7.16      -3.20       7.07
H       2.92      -0.66       6.38
O       5.28       3.87       6.88
O       7.46       3.90       6.27
H       8.27       2.57       4.48
H       8.74       0.86       4.16
H      11.08       1.38       4.90
H      10.59       2.46       3.57
H      10.61       3.06       5.25
H       8.26      -1.04       6.45
H       3.43       1.91       8.02
H       3.13       1.85       6.27
H       3.19      -0.60       8.15
C       6.06      -2.57       6.88
C       3.53      -0.20       7.17
C       6.37       3.30       6.57
C       5.03      -0.25       6.93
C       8.96       1.76       4.78
C      10.40       2.19       4.62
C       6.14      -1.08       6.81
C       7.36      -0.44       6.57
C       7.48       0.95       6.43
C       6.35       1.80       6.60
C       5.14       1.14       6.85
C       3.67       1.37       7.09
O       4.91      -3.10       6.72
