32

O       5.35      17.79       5.69
O       8.07       7.65      -5.69
H       5.05       9.95      -1.37
H       8.37      15.49       1.37
H       8.78       9.68      -4.61
H       4.64      15.76       4.61
C       6.50      17.50       5.21
C       6.92       7.94      -5.21
C       5.85       8.91      -3.08
C       7.57      16.53       3.08
C       5.87       9.89      -2.09
C       7.55      15.55       2.09
C       6.92      10.81      -1.98
C       6.50      14.63       1.98
C       7.99      10.72      -2.89
C       5.43      14.72       2.89
C       7.96       9.75      -3.89
C       5.46      15.69       3.89
C       6.89       8.86      -4.03
C       6.53      16.58       4.03
C       6.59      13.60       0.93
C       6.83      11.84      -0.93
I       4.23       7.56      -2.95
I       9.19      17.88       2.95
I       9.65      12.00      -2.75
I       3.77      13.44       2.75
N       7.80      11.88       0.01
N       5.62      13.56      -0.01
N       7.67      12.79       0.97
N       5.75      12.65      -0.97
O       5.80       7.55      -5.67
O       7.62      17.89       5.67
