28

C      18.24       6.39       2.15
C      11.76       2.41      11.51
C      17.52       5.90       3.37
C      12.52       2.84      10.29
C      16.40       5.06       3.26
C      13.78       3.46      10.40
C      15.74       4.61       4.39
C      14.48       3.84       9.26
C      16.20       5.00       5.67
C      13.92       3.61       7.99
H      16.07       4.76       2.26
C      17.33       5.82       5.78
C      12.67       2.97       7.88
H      14.19       3.61      11.40
C      17.99       6.27       4.64
H      14.87       3.96       4.33
H      15.46       4.32       9.33
C      11.98       2.59       9.02
H      17.67       6.10       6.78
H      12.28       2.79       6.88
N      14.52       3.97       6.77
H      18.86       6.91       4.69
H      11.01       2.10       8.96
O      17.76       6.07       1.01
O      12.27       2.70      12.64
O      19.28       7.09       2.35
O      10.66       1.81      11.31
N      15.60       4.63       6.89
