20

C      23.68      15.81       2.98
C      21.63      14.76       4.75
C      23.76      14.55       3.55
C      21.52      16.05       4.16
C      22.78      14.05       4.41
C      22.52      16.56       3.30
C      24.62      13.30       3.65
C      23.51      12.74       4.63
H      24.74      12.76       2.71
H      25.61      13.45       4.10
H      23.84      12.56       5.66
H      22.99      11.84       4.28
Cl      20.16      17.06       4.50
Cl      22.26      18.11       2.60
C      20.65      14.11       5.67
C      24.82      16.29       2.14
O      21.07      13.03       6.21
O      19.50      14.63       5.83
O      25.01      17.54       2.01
O      25.56      15.36       1.64
