12

H      12.80      12.06       3.53
C      13.05      10.65       5.11
O      14.07      11.05       5.77
H      11.55      13.78       4.72
O      12.72       9.43       5.01
C      12.22      11.71       4.39
H      12.82      13.23       5.81
C      11.90      12.91       5.29
O      10.66      11.40       6.72
C      10.86      12.59       6.35
O      10.20      13.56       6.87
H      11.30      11.24       4.01
