16

O      25.08       6.40       7.37
O      26.43       8.23       7.37
C      25.44       7.54       6.96
O      22.56      11.06       2.21
O      21.22       9.23       2.21
F      23.11       6.27       5.73
F      24.53      11.18       3.85
C      24.62       8.15       5.85
F      25.95      10.15       5.73
C      23.50       7.49       5.30
C      24.14       9.97       4.28
C      23.03       9.31       3.73
C      24.91       9.41       5.30
C      22.74       8.05       4.28
C      22.20       9.92       2.62
F      21.70       7.31       3.85
