26

C      17.14       3.06      13.75
C      17.14       2.01      14.80
C      17.98       2.13      15.92
C      16.29       0.90      14.69
C      17.98       1.14      16.90
C      16.29      -0.08      15.68
C      17.14       0.02      16.80
C      17.14      -1.01      17.84
C      18.25      -1.67      18.40
C      16.02      -1.57      18.50
H      18.62       3.00      16.00
C      19.70      -1.54      18.06
H      15.65       0.81      13.82
C      14.57      -1.23      18.36
H      18.61       1.25      17.78
H      15.66      -0.96      15.57
N      17.82      -2.56      19.32
H      20.31      -2.26      18.61
N      16.45      -2.49      19.39
H      13.96      -1.78      19.09
H      19.86      -1.72      16.98
H      14.41      -0.16      18.54
O      18.00       4.00      13.84
H      20.09      -0.53      18.28
O      16.27       2.96      12.81
H      14.18      -1.45      17.36
