16

O      17.11      13.91      26.02
O      14.83      13.82      25.98
S      14.46      11.45      27.51
S      17.42       9.10      29.30
O      17.04       6.75      30.87
O      14.77       6.58      30.71
C      15.99      13.39      26.32
C      15.89       7.14      30.48
C      17.08      11.47      27.68
C      14.80       9.07      29.13
C      16.00      12.17      27.13
C      15.88       8.37      29.67
C      15.24      10.20      28.40
C      16.64      10.34      28.41
Cl      18.73      11.86      27.54
Cl      13.15       8.68      29.27
