10

H       6.56       2.77       6.72
O       5.87       0.44       9.82
O       6.40       0.44       7.62
H       5.05       2.89       9.41
C       5.61       2.45       8.58
C       5.65       4.64       7.44
C       5.99       3.20       7.54
O       5.95       5.30       6.38
C       5.97       1.01       8.71
O       5.04       5.20       8.41
