28

H      13.35      10.27       3.27
H      14.99      10.95       3.35
H      13.84      11.55       2.14
H      14.06      13.18       4.04
H      13.58      11.93       5.20
N      12.06      12.65       3.94
H      12.67      14.29       2.84
H       7.61      11.81       4.31
H       8.00       9.87       5.88
H      12.23      10.45       5.54
O       9.39      15.83       1.58
O      11.65      15.98       1.77
O       8.20      13.65       2.88
O      11.56       8.48       6.85
O       9.34       8.51       7.36
C      13.93      11.19       3.17
C      13.47      12.26       4.15
C      11.80      13.73       3.17
C      10.55      14.16       2.79
C      10.52      15.41       1.99
C       9.37      13.40       3.20
C       9.68      12.25       4.09
C       8.61      11.50       4.61
C       8.83      10.44       5.46
C      10.15      10.07       5.80
C      11.23      10.78       5.27
C      11.01      11.88       4.43
C      10.37       8.94       6.73
