29

O       3.76       2.95       6.50
O       5.11       4.76       6.42
H       5.99       4.90       4.11
C       5.51       2.97       4.90
C       7.69       1.41       1.50
O       7.21       4.28       1.94
O       7.32       1.62       0.29
O       8.70       0.73       1.85
H       4.76      -1.46       6.13
C       6.07       3.82       3.97
H       5.81      -2.31       4.01
H       6.79      -0.72       2.42
C       5.09       0.59       5.65
C       6.75       3.34       2.83
C       5.18      -0.76       5.41
H       8.77       4.90       0.81
H       9.12       3.42       1.73
C       6.87       1.97       2.63
H       9.14       4.75       3.87
H      10.33       5.39       2.71
H       8.78       6.23       2.95
C       5.77      -1.24       4.22
C       6.32      -0.35       3.32
H       4.61       0.95       6.56
C       6.28       1.05       3.56
C       8.65       4.41       1.78
C       9.26       5.25       2.90
C       4.75       3.59       6.02
C       5.61       1.54       4.73
