28

C       7.89       6.86       6.07
C       9.32       8.07      -5.92
C       8.61       5.80       3.89
C       8.22       8.90      -3.80
C       7.91       6.80       4.57
C       9.17       8.08      -4.42
C       7.31       7.81       3.80
C       9.89       7.20      -3.60
C       7.46       7.86       2.42
C       9.63       7.08      -2.23
C       8.23       6.89       1.74
C       8.65       7.89      -1.62
C       8.77       5.84       2.51
C       7.97       8.82      -2.43
N       8.51       6.83       0.36
N       8.33       7.93      -0.25
O       7.50       5.84       6.70
O       9.36       9.20      -6.50
O       8.31       7.95       6.56
O       9.35       6.92      -6.45
F      10.87       6.43      -4.12
F       6.57       8.76       4.40
F      10.39       6.24      -1.51
F       6.82       8.84       1.75
F       9.50       4.88       1.92
F       7.03       9.61      -1.89
F       9.22       4.81       4.58
F       7.47       9.76      -4.52
