34

O       1.12      17.68       4.16
O       1.15      17.67       6.77
O       2.24      17.80      13.28
O       7.10      17.75      13.29
H       5.70      17.77       4.14
H       5.77      17.80       6.61
H       6.83      17.70      10.75
H       2.48      17.76      10.79
H       2.65      17.90       8.81
H       5.69      17.60       8.68
H       1.30      17.69       3.18
H       1.28      17.61       7.73
H       2.43      17.81      14.26
H       6.92      17.76      14.27
C       4.65      17.79      14.86
C       3.57      17.71       2.56
C       3.55      17.73       4.02
C       4.78      17.75       4.72
C       4.81      17.76       6.10
C       3.61      17.75       6.85
C       2.38      17.71       6.16
C       2.34      17.71       4.74
C       3.62      17.78       8.30
C       4.70      17.70       9.12
C       5.87      17.73      11.28
C       4.66      17.73      10.57
C       3.45      17.76      11.29
C       3.44      17.78      12.67
C       4.67      17.78      13.42
C       5.89      17.75      12.68
O       5.78      17.79      15.53
O       3.52      17.81      15.49
O       2.42      17.71       1.92
O       4.69      17.71       1.95
