16

C      14.26       2.28      20.12
H      12.51       3.97      14.69
H      12.22       4.28      20.25
O       9.66       6.88      15.22
O      15.12       1.42      19.72
C      12.19       4.29      15.67
C      12.53       3.96      19.27
C      10.52       6.02      14.82
C      11.23       5.27      15.86
C      12.05       4.43      18.03
C      12.66       3.81      16.91
O      10.80       5.74      13.60
C      13.51       2.99      19.08
O      13.98       2.57      21.34
S      10.89       5.60      17.53
S      13.84       2.65      17.41
