39

H      11.23       9.28       5.98
H      11.12       8.69       8.16
H       8.82      11.51       8.62
H      10.50      10.99       8.43
H      10.30      11.58       6.16
H       8.56      11.78       6.31
H       7.27       8.16       8.03
H       7.01       9.90       8.07
H       7.74       8.15       5.73
C       9.27      11.02       1.86
C       9.92       6.94       8.00
C      10.24       6.48       9.43
C       9.10       5.70      10.06
I      10.35       7.13       4.75
I       6.08      10.15       5.27
O      10.41      11.34       1.36
O      10.10       7.93      12.65
O       7.83       7.89      12.79
O       8.14      11.20       1.33
H       8.17       6.29      10.06
H       9.31       5.44      11.10
H       8.91       4.77       9.52
H      11.13       5.84       9.43
H      10.52       7.33      10.07
H       8.88       6.68       7.75
H      10.53       6.36       7.29
C       8.95       8.23      12.24
C      10.16       8.42       7.70
C       9.48      10.83       8.06
C       9.39      11.10       6.54
C       9.29      10.45       3.18
C       9.07       9.37       8.35
C      10.26       8.80       6.19
C       9.15       9.79       5.75
C       7.80       9.16       6.17
C       7.68       9.12       7.70
C       9.23      10.09       4.34
C       8.97       9.16       9.78
C       8.87       8.93      10.98
