30

Br       1.33       1.14      19.95
H      -0.19       1.55      22.24
O       1.16       5.70      15.56
H      -1.22       5.53      19.54
O       2.16       3.67      15.35
H       1.64       3.34      22.38
H       2.11       3.85      20.14
H      -2.16       4.03      19.59
H      -1.03       1.79      19.57
H       1.25       5.40      20.22
H       1.20       5.04      22.55
H      -2.47       4.57      21.85
O      -1.12       1.92      26.53
F      -2.09       2.02      21.69
O      -2.09       3.95      26.85
C       1.19       4.33      20.48
F      -1.07       6.03      21.89
C      -0.25       2.29      20.16
C      -0.69       2.32      21.64
C      -0.98       3.49      24.86
C       0.00       3.73      19.67
C       0.98       4.13      21.98
C      -0.49       3.72      22.26
C      -1.43       4.71      21.52
C      -1.28       4.53      20.01
C      -0.76       3.66      23.68
C       0.35       3.83      18.27
C       1.38       4.52      15.93
C       0.74       4.08      17.15
C      -1.41       3.10      26.17
