28

C      -1.11       4.94       4.17
C       3.19       4.69      10.83
C       0.05       4.76       4.94
H      -2.03       6.03       2.54
H      -1.99       4.34       4.41
C       1.21       5.49       4.62
O      -0.60       2.71       5.94
C       1.20       6.39       3.55
O       1.13       8.13       1.39
H       2.12       5.34       5.20
C       2.37       4.46       9.60
H       2.09       6.95       3.28
O      -1.12       7.88       1.19
C       2.16       3.16       9.12
H       2.60       2.33       9.66
O       3.38       5.89      11.21
C       1.40       2.94       7.97
H       1.21       1.93       7.60
O       3.66       3.65      11.41
H       0.65       6.18       7.20
C       0.87       4.03       7.26
C       1.08       5.33       7.74
H       1.96       6.55       9.30
C       1.81       5.55       8.91
C       0.05       3.75       6.04
C       0.01       7.61       1.71
C       0.03       6.59       2.81
C      -1.13       5.86       3.13
