25

O      11.83       0.23       1.82
O      16.81       3.05       5.82
O      10.73       2.22       1.83
H      11.91      -0.49       3.98
H      14.56      -0.70       7.35
H      12.67       3.86       2.10
O      15.73       5.04       5.68
H      13.20      -2.58       6.83
H      11.57      -1.94       6.56
H      12.43      -2.72       5.22
H      14.47       4.87       3.51
H      15.51       1.49       6.78
C      15.83       3.78       5.48
C      14.71       1.08       6.17
C      14.18      -0.15       6.49
C      13.15      -0.74       5.71
C      12.69      -0.04       4.60
C      13.20       1.23       4.25
C      14.24       1.82       5.06
C      14.70       3.13       4.74
C      14.12       3.86       3.71
C      13.11       3.29       2.92
C      12.67       2.00       3.15
C      11.66       1.44       2.21
C      12.56      -2.07       6.10
