33

O       1.39      12.71       9.73
H       5.90      10.37       1.58
H       5.01      13.49       5.06
H       5.83      12.41       3.04
H       1.48       9.98       9.64
H       2.71       8.12       5.95
H       1.73       7.94       8.21
H       3.78      13.43       7.19
H       2.23       8.04       2.79
H       0.19       8.60       3.47
H       0.83      10.00       4.37
H       0.75       8.42       5.16
C       4.36       8.25       1.65
C       2.51      12.38       9.20
C       5.20      11.54       3.24
C       4.30       9.38       2.60
C       1.95      10.04       8.66
C       2.07       8.91       7.84
C       2.60       9.01       6.57
C       3.05      10.25       6.05
C       3.10      11.37       6.95
C       3.57      10.40       4.71
C       4.40      11.52       4.42
C       4.44      12.61       5.34
C       3.76      12.57       6.52
C       3.34       9.44       3.65
C       5.21      10.44       2.42
C       2.51      11.25       8.24
C       0.95       8.92       4.20
N       2.25       8.61       3.64
O       5.50       7.98       1.12
O       3.63      12.94       9.45
O       3.29       7.58       1.42
