44

O       9.85      11.53      10.76
O       8.24      12.87      11.64
O      12.23      14.32      -1.66
O      10.67      15.72      -2.55
C       8.96      12.43      10.69
C       8.76      13.12       9.36
C       9.15      12.55       8.14
C       8.93      13.23       6.94
C       8.34      14.51       6.93
C       8.03      15.10       8.17
C       8.22      14.42       9.36
C       7.98      15.21       5.67
C       6.88      16.08       5.69
C       5.50      18.97       3.85
C       4.42      19.86       3.88
H       9.60      11.56       8.14
H       9.20      12.77       5.99
H       7.65      16.12       8.20
H       7.95      14.88      10.31
H       6.30      16.21       6.61
H       6.40      19.25       3.31
H       4.46      20.82       3.38
C      11.21      15.08      -1.59
C      10.50      15.17      -0.27
C      11.13      14.88       0.95
C      10.43      14.99       2.15
C       9.08      15.37       2.16
C       8.44      15.59       0.93
H       7.37      15.81       0.90
H      10.93      14.80       3.11
C       8.33      15.62       3.42
C       7.30      16.57       3.40
H       7.08      17.13       2.49
C       4.23      17.49       5.24
H       4.10      16.56       5.78
C       3.19      18.42       5.21
C       9.14      15.51      -0.27
H       8.64      15.70      -1.21
H       2.25      18.23       5.71
C       6.54      16.80       4.55
C       5.42      17.76       4.55
N       3.29      19.58       4.55
N       8.68      14.96       4.55
H      12.18      14.59       0.94
