20

H      23.32       9.78       9.23
H      21.21      12.22      13.50
H      20.31      10.68      13.56
H      22.13       9.69      15.01
H      23.03      11.22      14.93
Br      25.65       8.46      10.13
C      25.25       8.84      13.47
O      24.97       8.93      14.72
O      26.30       8.35      12.97
C      21.10      11.12       9.98
O      21.27      11.00       8.72
O      20.11      11.68      10.57
C      22.14      10.54      10.86
C      24.22       9.39      12.53
C      22.10      10.62      12.25
C      24.26       9.31      11.11
C      23.10      10.06      13.05
C      23.25       9.87      10.31
C      21.31      11.13      13.44
C      22.45      10.50      14.34
