16

N       5.69       4.06       7.91
N       5.65      -3.86       8.20
O       5.91      -1.20      10.48
O       5.43       1.41       5.61
H       5.88       1.49      10.11
H       5.46      -1.28       5.98
H       5.97      -0.58      11.23
H       5.36       0.80       4.86
C       5.79      -0.52       9.31
C       5.54       0.73       6.78
C       5.67      -1.28       8.13
C       5.66       1.49       7.97
C       5.55      -0.66       6.87
C       5.79       0.87       9.22
C       5.66      -2.70       8.19
C       5.67       2.90       7.90
