111

O      25.01      17.77      15.00
O      37.29      25.46      20.50
O      24.06      16.23      16.30
O      38.24      24.72      22.37
H      28.03      20.90      20.38
H      34.27      19.35      19.27
O      21.91      23.60      25.40
O      40.39      13.73      18.34
H      29.49      19.95      19.93
H      32.81      20.09      20.03
O      22.69      22.44      27.12
O      39.61      12.47      20.00
H      27.49      19.28      23.05
H      34.81      17.35      21.67
O      35.90      24.76      24.30
O      26.41      14.40      16.88
H      28.46      20.38      24.09
H      33.84      16.01      20.97
O      35.51      23.91      26.37
O      26.80      12.71      18.36
H      30.91      21.41      21.53
H      31.39      18.10      19.16
H      29.40      22.36      21.77
H      32.90      17.57      18.35
H      30.56      19.17      23.43
H      31.74      17.03      21.89
H      29.55      18.07      22.42
H      32.75      18.33      22.61
H      28.00      20.02      18.17
H      34.30      21.73      19.39
H      26.65      19.25      16.22
H      35.65      23.82      19.49
H      24.81      16.23      18.65
H      37.49      22.50      23.14
H      26.17      16.97      20.61
H      36.13      20.40      23.06
H      25.51      23.10      22.12
H      36.79      16.99      17.75
H      23.54      23.79      23.48
H      38.76      15.49      17.54
H      24.61      20.89      26.48
H      37.69      13.58      21.25
H      26.54      20.16      25.11
H      35.76      15.12      21.51
H      31.99      23.19      21.88
H      30.31      17.20      17.59
H      34.12      24.21      22.66
H      28.18      16.13      16.88
H      33.36      22.81      26.64
H      28.94      12.81      19.49
H      31.24      21.74      25.88
H      31.06      13.87      20.25
C      29.20      20.20      22.07
C      33.10      17.98      20.49
C      28.65      20.04      20.65
C      33.65      19.38      20.18
C      28.06      20.22      23.08
C      34.24      17.02      20.79
C      30.00      21.51      22.14
C      32.30      17.49      19.27
C      30.12      19.02      22.42
C      32.18      18.03      21.71
C      27.16      18.53      19.51
C      35.14      20.94      21.24
C      27.31      19.19      18.28
C      35.00      21.89      20.21
C      26.55      18.76      17.19
C      35.75      23.06      20.26
C      25.64      17.70      17.31
C      36.66      23.29      21.31
C      25.50      17.06      18.56
C      36.80      22.32      22.32
C      26.26      17.46      19.64
C      36.04      21.16      22.29
C      24.87      17.22      16.15
C      37.43      24.54      21.39
C      26.15      21.60      23.53
C      36.15      16.14      19.63
C      25.31      22.63      23.08
C      37.00      16.24      18.51
C      24.21      23.01      23.84
C      38.09      15.39      18.40
C      23.96      22.39      25.08
C      38.34      14.42      19.38
C      24.81      21.37      25.52
C      37.49      14.33      20.49
C      25.90      20.96      24.75
C      36.40      15.19      20.63
C      22.81      22.81      25.92
C      39.49      13.49      19.25
C      31.49      22.38      23.83
C      30.81      15.61      18.99
C      32.28      23.10      22.92
C      30.02      16.24      18.02
C      33.47      23.68      23.36
C      28.83      15.63      17.60
C      33.87      23.58      24.70
C      28.43      14.40      18.13
C      33.05      22.89      25.60
C      29.26      13.77      19.07
C      31.87      22.30      25.18
C      30.43      14.35      19.50
C      35.18      24.14      25.15
C      27.12      13.80      17.75
O      31.15      18.97      21.44
O      27.86      18.85      20.64
O      34.44      19.77      21.30
O      27.20      21.31      22.72
O      35.10      17.01      19.64
O      30.34      21.72      23.51
O      31.96      16.13      19.51
