13

H       1.98       7.63      13.51
C      -1.40       5.68      11.10
C       1.53       6.99      12.75
C       0.15       6.80      12.48
C      -0.03       5.91      11.40
C      -1.92       4.81      10.01
S      -1.39       7.29      13.06
S       1.50       5.38      10.83
H      -2.35       5.43       9.21
H      -1.13       4.18       9.60
H      -2.74       4.19      10.39
N      -2.20       6.36      11.92
N       2.32       6.30      11.95
