17

H       9.46      10.39       7.64
H      13.75      10.40       7.17
H       9.46      12.88       7.61
O      12.68      15.14       7.27
H      13.81      13.95       7.13
O      12.70       8.14       7.28
O      10.45       8.19       7.49
O      10.44      15.11       7.48
C      11.55      14.52       7.37
O      14.01      12.97       7.11
C      11.59       8.75       7.39
C      11.60      13.05       7.38
C      11.61      10.25       7.40
C      12.82      12.34       7.26
C      10.39      10.95       7.54
C      12.81      10.94       7.27
C      10.40      12.33       7.52
