28

C       2.19      -2.16       5.74
C      -2.09      -3.43       3.48
C      -2.87      -2.46       4.17
H      -5.00      -0.77       5.47
C      -2.11      -1.50       4.83
C      -2.22      -0.31       5.77
H      -0.19      -4.31       3.09
C      -0.65      -0.38       5.89
H      -2.59      -4.21       2.91
H      -2.76      -0.50       6.71
H      -2.61       0.62       5.32
H      -0.28      -0.61       6.90
H      -0.11       0.51       5.52
H       2.02      -1.18       6.17
C       2.16      -4.06       4.61
C      -5.14      -3.66       3.94
C      -4.31      -2.58       4.31
H       1.95      -4.91       3.97
N      -6.44      -2.25       5.03
N       3.28      -2.88       6.08
H      -4.88      -4.57       3.42
C      -5.20      -1.73       5.00
C       1.42      -2.88       4.81
N       3.26      -4.04       5.39
N      -6.40      -3.46       4.37
C      -0.72      -1.56       4.94
C       0.05      -2.60       4.40
C      -0.70      -3.49       3.59
