16

O       0.65       6.39       5.23
F       4.31      11.06       4.99
H      -0.31       8.66       5.38
H       3.98       8.52       5.07
H      -0.21      11.16       5.36
C       1.79       6.94       5.25
C       1.91      12.76       5.18
C       1.92      11.26       5.19
C       1.83       8.44       5.23
C       3.09      10.48       5.11
C       0.64       9.18       5.31
C       3.06       9.09       5.13
C       0.70      10.57       5.29
O       2.92       6.35       5.28
O       3.03      13.36       5.15
O       0.76      13.32       5.19
