30

N       1.94       6.99      19.49
N       1.94       6.95      20.75
H       0.70      11.44      19.37
H       0.76       9.22      20.54
H       3.00       7.58      17.22
H       3.00       6.35      23.02
H       0.76       4.72      19.70
H       0.70       2.49      20.87
O       2.79       1.59      24.07
O       0.93       1.02      22.90
O       2.79      12.35      16.17
O       0.93      12.92      17.33
H       3.28      10.77      15.72
H       3.28       3.16      24.52
O       3.26       9.80      15.94
O       3.26       4.13      24.30
C       1.87       1.84      23.19
C       1.87      12.10      17.05
C       1.91      10.79      17.71
C       1.23      10.60      18.94
C       1.26       9.37      19.58
C       1.90       8.29      18.94
C       2.51       8.44      17.70
C       2.58       9.70      17.10
C       2.51       5.50      22.54
C       1.90       5.65      21.30
C       1.26       4.56      20.66
C       1.23       3.34      21.30
C       1.90       3.15      22.53
C       2.58       4.24      23.14
