26

Cl       0.84      33.33      17.05
Cl       0.84      28.29      18.53
O       2.95      30.17      12.13
O       1.06      31.43      12.15
O       2.95      31.46      23.45
O       1.06      30.20      23.44
H       0.98      32.69      14.36
H       0.98      28.93      21.23
H       3.12      32.66      21.19
H       3.03      32.68      18.72
H       3.12      28.96      14.39
H       3.02      28.94      16.87
C       2.01      30.80      12.73
C       2.01      30.82      22.86
C       2.03      30.81      14.21
C       2.03      30.81      21.37
C       1.45      31.88      14.91
C       1.49      31.91      16.30
C       1.45      29.75      20.68
C       1.49      29.72      19.28
C       2.63      31.85      20.65
C       2.58      31.85      19.27
C       2.63      29.77      14.93
C       2.58      29.77      16.32
C       2.01      30.83      17.05
C       2.01      30.79      18.53
