24

H      11.51       7.77      15.88
H      13.32       7.13      19.73
H      13.42       4.69      19.20
H      13.25       2.67      18.71
H      13.04       0.32      17.90
H      11.68       1.88      14.11
N      11.99       5.81      16.36
N      12.10       3.27      15.59
O      11.78       9.83      17.24
O      12.83       9.49      19.24
O      11.95      -1.34      16.43
O      12.02      -0.72      14.24
C      11.94       7.12      16.64
C      12.40       7.63      17.86
C      12.94       6.74      18.79
C      12.99       5.39      18.49
C      12.51       4.94      17.25
C      12.52       3.51      16.85
C      12.90       2.47      17.70
C      12.79       1.16      17.25
C      12.33       0.91      15.95
C      12.02       2.01      15.14
C      12.33       9.11      18.13
C      12.09      -0.50      15.49
