30

C       8.20      11.66      14.99
C      11.33      10.00      13.62
C       4.10      13.68      17.66
C       3.18      14.21      18.55
H       4.76      13.51      21.48
H       6.41      12.54      19.91
H       5.87      12.58      16.11
H       7.91      12.24      18.39
H       9.97      11.30      17.88
H      11.62      10.34      16.27
H       8.90      11.09      13.03
H       7.25      12.03      14.61
H       3.91      13.72      16.59
H       2.26      14.68      18.19
O       1.37      15.26      20.32
O       2.73      14.83      22.11
O      12.39       9.52      14.15
O      11.02       9.98      12.38
C       2.43      14.80      20.86
C       3.42      14.17      19.93
C       4.59      13.56      20.41
C       5.51      13.02      19.52
C       5.30      13.09      18.12
C       6.25      12.60      17.14
C       7.53      12.20      17.37
C       8.47      11.71      16.38
C       9.73      11.25      16.82
C      10.66      10.71      15.93
C      10.36      10.64      14.56
C       9.12      11.13      14.10
