48

O       6.48       7.00       6.26
H       7.42       6.38       1.56
O       5.51       8.58      -6.52
H       5.91       9.53      -4.47
H       6.58       9.71      -2.05
H       6.31      10.40       4.25
O       5.47       6.32      -6.55
H       7.48       5.51      -2.06
H       7.15       6.21       4.06
H       7.87      11.96       2.97
H       7.52      14.22       2.04
H       5.92      14.56       0.15
H       4.68      12.61      -0.77
H       5.05      10.34       0.15
H       5.62       3.96      -3.21
H       6.00       1.69      -4.14
H       7.60       1.37      -6.03
H       8.77       3.35      -7.00
H       8.34       5.61      -6.12
C       6.47       8.18       5.77
C       6.28       7.44      -4.61
C       6.77       6.28      -3.96
C       7.13       6.39      -2.61
C       7.04       7.16       3.54
C       5.72       7.43      -6.00
C       7.19       7.25       2.17
C       6.71       8.30       4.29
C       6.99       8.48       1.51
C       6.69       9.65       2.25
C       6.49      10.98       1.63
C       7.17      12.10       2.15
C       6.97      13.38       1.62
C       6.08      13.56       0.56
C       5.39      12.47       0.04
C       5.60      11.19       0.56
C       6.95       4.94      -4.59
C       6.31       3.82      -4.05
C       6.57       9.53       3.65
C       6.53       2.54      -4.57
C       7.42       2.37      -5.63
C       8.07       3.48      -6.17
C       7.84       4.75      -5.67
C       6.63       8.77      -2.59
C       6.27       8.66      -3.92
C       7.02       7.60      -1.91
N       7.00       8.60       0.11
N       7.22       7.51      -0.52
O       6.28       9.26       6.42
