39

F       9.96      19.62      10.07
F       9.01      20.04      12.00
C       9.83      16.99      13.60
F       8.81      18.07      11.10
C      10.51      18.22      13.47
C      10.96      18.62      12.05
C       9.45      16.51      14.84
C       9.72      17.25      16.00
C      10.35      18.49      15.87
C      10.76      18.97      14.62
C       8.67      15.23      14.88
C       9.43      16.74      17.38
C      11.61      17.38      11.40
C      12.38      16.58      12.25
C      12.84      15.34      11.84
C      12.55      14.89      10.54
C      11.88      15.74       9.66
C      11.41      16.98      10.08
C      13.62      14.53      12.85
C      12.83      13.48      10.17
C       9.69      19.10      11.29
C      12.02      19.77      12.03
F      11.52      20.96      12.44
F      13.06      19.46      12.86
F      12.53      19.94      10.79
H       9.63      16.38      12.72
H      10.56      19.06      16.77
H      11.28      19.92      14.57
H      12.57      16.89      13.28
H      11.68      15.38       8.65
H      10.84      17.59       9.38
O       7.53      15.28      15.44
O       9.17      14.21      14.32
O       9.04      17.57      18.25
O       9.63      15.49      17.64
O      13.05      14.37      13.99
O      14.78      14.14      12.54
O      13.20      13.15       9.00
O      12.71      12.59      11.09
