16

O      17.45      18.55      26.25
O      22.13      21.46      30.62
C      19.43      18.56      27.57
C      21.35      19.65      29.33
C      19.30      19.89      28.05
C      21.48      18.33      28.87
C      20.26      20.41      28.92
C      20.53      17.81      28.01
C      22.35      20.25      30.27
O      23.33      19.52      30.62
Br      17.89      21.09      27.60
C      18.46      17.89      26.63
H      22.33      17.73      29.20
H      20.16      21.44      29.28
H      20.62      16.79      27.64
O      18.75      16.69      26.29
