14

O       3.29       4.92       4.90
C       1.08       7.67       4.29
C       1.77       6.54       4.05
C       0.33       8.42       3.30
C      -0.46       7.79       2.41
H       1.03       8.03       5.32
H       1.96       6.18       3.03
H       0.32       9.51       3.34
H      -0.54       6.70       2.42
O      -1.28       9.72       1.24
O      -2.25       7.69       0.92
C      -1.38       8.45       1.47
C       2.33       5.76       5.17
O       1.83       5.93       6.32
