22

H      -2.14       2.42       9.98
H      -2.01      -1.16       7.56
H      -2.56       6.43       4.17
C      -1.52       1.42       5.82
C      -1.76       1.84       7.09
C      -1.62       2.23       4.63
C      -1.80       3.58       4.57
H      -2.56       2.85       1.71
N      -2.40       0.36      10.38
N      -2.36      -0.78       9.60
N      -3.29       5.94       2.24
H      -1.34       0.36       5.66
H      -1.95       2.90       7.27
H      -1.68       1.66       3.69
H      -1.70       4.16       5.49
N      -3.29       4.82       1.47
C      -2.15       1.41       9.58
C      -2.07      -0.41       8.34
C      -1.93       0.99       8.25
C      -2.68       5.66       3.40
C      -2.67       3.84       2.15
C      -2.27       4.31       3.42
