16

C      15.13       3.31       4.88
C      13.14       2.08       3.26
C      15.28       3.26       3.48
C      13.00       2.12       4.67
C      14.29       2.66       2.71
Br      16.77       3.94       2.53
C      13.98       2.72       5.44
Br      11.54       1.38       5.64
O      12.49       1.50       1.06
C      16.09       3.94       5.85
O      15.93       3.66       7.08
H      14.40       2.62       1.62
H      13.88       2.74       6.53
O      11.09       0.99       2.77
O      16.97       4.73       5.37
C      12.16       1.47       2.30
