36

H       1.81      18.88      16.81
H       2.13      16.72      20.55
H       2.13      26.98      21.49
H       1.81      24.82      25.23
C       1.97      27.35      24.20
C       1.97      16.35      17.85
C       1.97      17.64      18.59
C       1.89      18.85      17.90
C       1.96      20.04      18.60
C       1.97      20.10      20.01
C       1.99      18.85      20.67
C       2.06      17.64      19.99
C       1.97      21.32      20.72
C       1.97      22.38      21.33
C       1.97      23.59      22.03
C       1.99      24.85      21.38
C       2.06      26.06      22.06
C       1.97      26.06      23.45
C       1.89      24.85      24.15
C       1.96      23.66      23.45
N       1.90      18.76      22.15
N       2.05      21.28      17.79
N       2.05      22.42      24.25
N       1.90      24.93      19.90
O       2.90      28.18      23.93
O       1.05      27.53      25.05
O       2.90      15.51      18.12
O       1.04      16.16      16.99
O       1.11      19.54      22.70
O       2.59      17.90      22.69
O       2.83      22.14      18.18
O       1.36      21.32      16.76
O       2.83      21.55      23.86
O       1.36      22.38      25.28
O       1.11      24.16      19.35
O       2.59      25.80      19.35
