10

C       5.11       5.29       3.36
C       5.01       5.53      -1.87
C       5.03       5.50      -0.65
C       5.06       5.44       0.70
C       5.09       5.36       1.92
O       3.95       5.76      -3.92
O       6.19       5.34      -3.84
O       3.99       5.06       3.92
O       6.23       5.47       3.93
C       5.05       5.54      -3.31
