16

H      26.31      12.82       3.24
H      30.28      10.28       4.83
F      27.84      14.11       4.83
O      25.39      11.03       1.88
O      26.62       9.11       1.86
C      30.20      12.71       5.89
C      29.22      12.13       4.93
C      27.38      10.93       3.16
C      28.09      12.83       4.46
C      28.50      10.21       3.60
C      27.18      12.25       3.59
C      26.39      10.31       2.23
C      29.40      10.81       4.47
O      29.92      13.84       6.42
O      31.26      12.02       6.11
H      28.65       9.19       3.26
