22

C      10.27       7.13      13.25
C      11.00       7.63      14.36
C      10.94       6.66      12.13
C      10.36       8.18      15.51
C      11.09       8.69      16.56
C      13.09       7.06      13.20
C      12.36       6.60      12.12
C      12.43       7.61      14.33
H       9.27       8.23      15.55
C      13.16       8.13      15.43
C      12.51       8.67      16.52
H      14.25       8.12      15.41
C      14.59       7.02      13.17
C       8.76       7.13      13.26
Cl      13.18       5.98      10.73
Cl      10.08       6.19      10.72
Cl      10.26       9.36      17.92
Cl      13.44       9.34      17.81
O      15.16       8.14      12.98
O      15.15       5.89      13.35
O       8.18       6.00      13.15
O       8.20       8.26      13.40
