16

O       5.49      16.50       9.57
O       5.35      17.28      11.64
O       2.03      21.01      12.45
O       2.78      22.84      11.33
O       4.01      20.68       6.84
C       5.12      17.42      10.39
C       4.45      18.65       9.90
C       3.80      19.47      10.83
C       3.27      20.70      10.42
C       2.66      21.61      11.44
C       3.36      21.09       9.08
C       3.94      20.22       8.16
C       4.50      19.01       8.55
H       3.76      19.17      11.88
H       2.98      22.06       8.76
H       5.02      18.37       7.83
