16

H       4.16      21.24      24.08
C       5.86      19.97      23.70
C       5.02      20.73      24.53
C       5.29      20.82      25.89
C       5.63      19.87      22.23
C       6.97      19.31      24.25
O       4.71      20.59      21.70
O       6.40      19.07      21.60
H       7.62      18.74      23.59
C       7.23      19.40      25.61
H       4.64      21.41      26.55
C       6.39      20.15      26.44
C       6.67      20.21      27.91
O       6.04      21.08      28.59
H       8.09      18.89      26.05
O       7.52      19.37      28.35
