29

O       2.86       2.23       8.83
C      -0.87      -1.07       7.89
H      -1.26      -2.11       5.37
H      -0.99      -0.79      10.00
O      -2.78      -2.13       8.85
O       1.61       3.17       7.18
O      -1.63      -3.23       7.24
O      -0.17      -1.33       2.99
C      -1.82      -2.21       7.98
C      -1.05      -2.46       2.83
H       0.74       1.02      10.06
H       1.95       1.70       5.47
H       1.41       0.59       3.33
H      -2.07      -2.17       3.11
H      -0.73      -3.27       3.50
H       0.08      -3.09       1.10
H      -1.56      -3.76       1.19
H      -1.32      -2.06       0.72
C      -0.96      -2.87       1.37
C       1.89       2.22       7.98
C       1.26       0.86       5.46
C       0.96       0.26       4.27
C       0.03      -0.82       4.23
C      -0.57      -1.27       5.39
C      -0.26      -0.67       6.65
C       0.67       0.43       6.68
C       1.00       1.02       7.93
C       0.45       0.56       9.12
C      -0.52      -0.45       9.08
