38

H      14.24       7.87      10.61
H      16.69       9.74      16.66
H      17.60       5.62      11.96
H      13.72      12.26      15.15
H       9.99       8.90      10.40
H      20.88       8.57      17.27
C      16.15       7.41      12.59
C      15.11      10.40      14.54
C      17.46       7.20      13.00
C      13.79      10.62      14.20
C      18.84       9.29      18.06
C      11.93       8.09       9.48
C      18.65       8.97      16.62
C      12.27       8.57      10.84
C      19.34       7.83      14.59
C      11.79       9.84      12.85
C      19.67       8.34      15.85
C      11.33       9.24      11.67
C      17.43       9.26      16.04
C      13.57       8.37      11.29
C      17.12       8.88      14.73
C      14.02       8.84      12.53
C      18.03       8.00      14.05
C      13.15       9.74      13.25
C      15.87       9.26      14.12
C      15.33       8.50      13.04
Br      20.76       6.99      13.65
Br      10.45      10.70      13.89
Br      15.47       5.96      11.50
Br      15.97      11.92      15.37
O      20.07       9.27      18.51
O      10.70       8.14       9.10
O      17.84       9.53      18.78
O      12.90       7.69       8.76
O      18.19       6.16      12.54
O      13.11      11.72      14.59
O      10.04       9.35      11.30
O      20.91       8.16      16.35
