30

H       5.68      10.03       7.28
H       1.04      14.82       9.99
H       1.18      12.36      10.37
H       5.54      12.50       6.89
C       2.62       9.48      11.29
C       4.10      15.37       5.98
O       3.80      17.01       8.72
O       2.93       7.85       8.55
O       1.54      16.94       8.54
O       5.19       7.92       8.72
O       2.09      10.13      10.12
O       4.63      14.73       7.14
H       3.05      10.23      11.97
H       3.39       8.73      11.04
H       1.78       8.98      11.78
H       4.94      15.88       5.49
H       3.33      16.12       6.23
H       3.67      14.62       5.30
C       2.69      16.39       8.63
C       4.04       8.46       8.64
C       3.98       9.96       8.60
C       2.74      14.90       8.67
C       1.89      12.87       9.72
C       4.83      11.99       7.55
C       1.81      14.22       9.50
C       4.91      10.63       7.77
C       3.71      14.16       7.99
C       3.01      10.69       9.27
C       3.82      12.75       8.19
C       2.90      12.10       9.08
