13

H      13.14       3.88       5.82
H      11.74       3.41       4.79
O      11.49       6.43       5.72
C      13.43       4.26       3.00
C      14.32       5.19       2.20
O      10.74       4.61       6.85
C      11.45       5.19       5.97
H      12.62       3.88       2.35
C      12.34       4.26       5.16
O      15.02       4.61       1.31
O      12.88       5.01       4.08
O      14.27       6.43       2.45
H      14.02       3.41       3.37
