20

H       3.76       4.76       9.78
H       0.08       4.06      10.31
H       2.22       8.74       5.56
O       1.93       3.44      10.88
H      -1.10       5.29       9.17
H       3.41       7.73       6.93
H      -1.44       8.25       6.31
C       1.70       5.20       9.29
C       0.62       7.79       6.78
C       3.07       5.37       9.18
C      -0.76       7.64       6.90
C       2.87       7.04       7.57
C      -0.56       5.97       8.51
C       1.46       6.97       7.59
C       0.86       6.03       8.48
C       1.19       4.16      10.23
C       1.13       8.80       5.81
N      -1.31       6.75       7.75
N       3.63       6.27       8.34
O       0.42       9.64       5.29
