22

O       5.56       5.03       8.48
O       4.07       6.16       7.21
O       7.98      11.89       7.94
O       9.52      10.87       6.62
H       7.89       6.20       7.27
H       3.05       8.17       7.26
H       2.26       9.30       8.15
H       5.32      11.26       9.05
H       9.25       8.25       6.96
H       4.11       9.13       9.50
H       4.80      11.20       7.34
C       6.31       9.68       7.84
C       8.44      10.87       7.33
C       7.66       9.62       7.47
C       8.20       8.34       7.25
C       7.43       7.18       7.42
C       6.07       7.25       7.76
C       5.54       8.53       7.97
C       4.30       9.29       8.42
C       5.17      10.60       8.18
C       5.18       6.07       7.82
N       3.10       9.13       7.60
