28

O       5.04      14.15      20.31
H       7.40      11.30      20.54
H       7.70       9.42      18.94
H       5.29      13.54      17.55
H       4.62      12.07      11.71
H       4.32      14.01      13.26
H       6.77       8.69      14.35
H       7.46       8.48      16.70
H       4.97      13.82      15.62
C       5.68       9.70      12.25
C       7.19      10.34      18.63
C       6.31      12.52      19.12
C       4.95      12.01      12.75
C       4.77      13.09      13.63
C       5.14      12.98      14.96
C       5.72      11.79      15.46
C       5.97      10.71      14.56
C       6.09      11.64      16.86
C       6.75      10.45      17.29
C       6.97       9.39      16.35
C       6.59       9.51      15.04
C       5.83      12.64      17.82
C       7.02      11.37      19.52
C       5.56      10.84      13.20
C       6.19      13.67      20.06
O       6.84       9.28      11.93
O       4.58       9.22      11.84
O       7.29      14.11      20.51
