10

O      11.86       9.83      18.11
O      11.84       9.83      20.40
C      11.85       9.27      19.26
C      11.85       2.60      19.26
C      11.85       4.04      19.26
O      13.00       2.04      19.28
C      11.85       5.26      19.26
O      10.71       2.04      19.24
C      11.85       6.61      19.26
C      11.85       7.83      19.26
