42

C       6.48       9.82       1.48
C      12.84      17.52      -1.48
C       7.22      10.70       0.68
C      12.11      16.64      -0.68
C       8.02      11.66       1.30
C      11.30      15.68      -1.30
C       8.07      11.69       2.70
C      11.26      15.65      -2.70
C       7.32      10.77       3.42
C      12.00      16.57      -3.42
C       8.84      12.66       0.56
C      10.48      14.68      -0.56
C       8.32      13.96       0.38
C      11.00      13.38      -0.38
C       6.97      14.29       0.70
C      12.36      13.05      -0.70
C       6.47      15.55       0.48
C      12.85      11.79      -0.48
C       7.31      16.58      -0.04
C      12.01      10.76       0.04
C       8.62      16.31      -0.36
C      10.71      11.03       0.36
C       9.16      15.00      -0.19
C      10.16      12.34       0.19
N       6.54       9.85       2.83
N      12.79      17.49      -2.83
H       5.83       9.06       1.06
H      13.50      18.28      -1.06
H       7.16      10.62      -0.40
H      12.16      16.72       0.40
H       8.67      12.43       3.22
H      10.65      14.91      -3.22
H       7.34      10.74       4.51
H      11.98      16.60      -4.51
H       6.32      13.51       1.11
H      13.00      13.83      -1.11
H       5.43      15.77       0.71
H      13.89      11.57      -0.71
H       6.91      17.58      -0.19
H      12.41       9.76       0.19
H       9.25      17.10      -0.78
H      10.08      10.24       0.78
