52

H       0.94      12.47       1.23
H       3.40      10.69       4.32
H       3.40      11.95       0.33
H       0.94       8.38       0.33
H       3.40       7.86       1.23
H       0.94       9.65       4.32
C       2.17      10.17      -3.84
C       2.17       5.15       4.85
C       2.17      15.19       4.85
C       1.50      13.70       2.88
C       1.47      12.50       2.17
C       2.17      11.39       2.66
C       2.86      11.52       3.87
C       2.84      12.73       4.55
C       2.17      13.87       4.09
C       2.86      11.15      -0.17
C       2.84      11.14      -1.56
C       2.17      10.17      -2.32
C       1.50       9.20      -1.56
C       1.47       9.19      -0.17
C       2.17      10.17       0.54
C       2.86       7.83       2.17
C       2.84       6.64       2.88
C       2.17       6.47       4.09
C       1.50       7.61       4.55
C       1.47       8.81       3.87
C       2.17       8.94       2.66
N       2.17      10.17       1.96
N       3.56      12.75       5.84
N       0.77      14.83       2.25
N       3.56      12.24      -2.23
N       0.77       8.09      -2.23
N       3.56       5.51       2.25
N       0.77       7.58       5.84
O       3.20      15.90       4.72
O       3.20       9.70      -4.39
O       3.20       4.91       5.54
O       1.13      15.42       5.54
O       1.13       4.44       4.72
O       1.13      10.64      -4.39
O       3.21      13.60       6.67
O       4.47      11.92       6.00
O       1.13      15.96       2.57
O      -0.13      14.54       1.45
O       3.21      12.53      -3.37
O       4.47      12.79      -1.58
O       1.13       7.80      -3.37
O      -0.13       7.54      -1.58
O       3.21       4.37       2.57
O       4.47       5.79       1.45
O       1.13       6.74       6.67
O      -0.13       8.42       6.00
