64

H       3.11       5.10      18.37
H       3.32       5.78      37.78
H       3.39       5.80      35.27
H       5.95       9.09      27.20
H       3.15       5.13      20.87
H       4.78       2.51      24.62
H       7.58       5.31      37.91
H       7.67       5.35      35.40
H       7.16       6.49      18.25
H       7.22       6.53      20.75
H       5.37       9.04      29.10
H       5.28       8.94      31.57
H       5.08       2.38      27.07
C       4.03       5.43      20.29
C       5.19       5.82      20.95
C       5.46       5.80      25.22
C       5.20       4.60      24.51
C       5.03       3.40      25.19
C       5.56       7.04      24.52
C       5.13       5.78      18.16
C       5.44       5.55      37.99
C       5.83       4.43      28.76
C       5.61       6.91      28.84
C       5.10       5.74      16.66
C       5.70       5.65      29.51
C       6.22       3.28      29.47
C       6.22       3.25      30.90
C       5.88       4.39      31.64
C       5.69       5.62      30.94
C       5.52       6.83      31.66
C       5.49       6.85      33.13
C       5.70       4.35      33.11
C       6.72       5.44      35.93
C       6.67       5.43      37.32
C       4.27       5.69      37.25
C       4.31       5.70      35.85
C       5.54       5.58      35.21
C       5.56       4.47      27.32
C       5.58       5.73      26.65
C       5.69       6.95      27.38
C       5.21       3.34      26.57
C       5.78       8.20      25.28
C       5.46       8.07      29.59
C       5.40       8.03      30.98
C       5.40       5.56      39.49
C       5.82       8.14      26.68
C       5.09       4.58      23.04
C       5.43       7.06      23.04
C       6.33       6.21      20.22
C       6.29       6.18      18.83
C       4.00       5.41      18.90
N       5.24       5.82      22.39
N       5.60       5.60      33.76
Cl       5.98       9.77      24.60
Cl       6.67       1.79      31.66
Cl       6.81       1.87      28.67
O       5.64       3.32      33.78
O       5.47       8.09      22.37
O       5.37       7.89      33.79
O       6.23       5.86      16.07
O       3.98       5.58      16.09
O       6.51       5.39      40.10
O       4.27       5.74      40.04
O       4.88       3.54      22.40
