48

H       8.10       3.02      15.55
H       6.66       2.02      15.88
H       7.75       1.17      18.00
H       8.75       0.81      16.57
H       9.19       2.16      17.65
H       7.15       7.89      17.56
H       7.65       9.69      16.10
H       6.58       8.99      14.87
H       8.15       8.21      15.22
H       4.26       7.75      13.92
H       2.58       9.06      15.02
H       4.08       9.21      15.99
H       2.81       8.08      16.49
H       2.06       3.98      16.04
H       1.90       5.66      15.45
H       0.48       6.24      17.43
H      -0.22       4.84      16.59
H       0.70       4.60      18.09
H       4.48       3.33      15.49
H       7.75       5.58      15.01
C       5.81       6.17      21.41
C       5.34       5.45      10.60
C       4.92       4.30      15.73
C       6.25       4.53      16.55
C       5.56       5.69      17.37
C       5.75       6.07      19.97
C       5.33       5.31      12.04
C       4.24       5.47      16.54
C       7.50       2.55      16.36
C       8.35       1.62      17.20
C       7.29       8.74      15.67
C       3.32       8.51      15.62
C       1.92       5.03      16.35
C       0.65       5.19      17.16
C       4.72       6.52      15.46
C       5.43       5.34      14.66
C       6.07       6.73      16.29
C       6.76       5.56      15.48
C       5.66       5.89      18.77
C       5.36       5.26      13.25
N       6.60       7.98      16.71
N       3.86       7.42      14.80
O       3.02       5.43      17.19
O       4.72       6.40      22.02
O       6.95       5.99      21.95
O       4.22       5.35       9.99
O       6.47       5.70      10.07
O       6.98       3.58      17.22
