44

C      -0.74       3.57      13.84
H      -1.04       1.77      16.57
H      -1.79       0.05      10.66
H       2.99       3.00      15.65
H      -2.02      -1.06       8.45
H       3.24       3.89      17.97
H      -0.62       2.17      11.52
H       1.90       0.01      15.17
N      -1.52       5.43      14.84
N       1.54      -3.86      12.96
N       2.69      -3.52      13.64
N      -2.53       4.92      14.09
H       3.58      -1.69      14.23
H      -2.73       3.23      12.82
H      -0.04      -2.74      12.10
H       0.49       4.88      15.21
H      -0.00      -1.98       7.29
H       1.37       3.70      19.59
H       2.23      -1.77       8.36
H      -0.77       2.61      18.88
H       2.46      -0.67      10.58
C       1.35      -1.37       8.87
C       0.05       2.71      18.18
C       1.47      -0.75      10.11
C      -0.09       2.23      16.88
C       0.35      -0.22      10.77
C       0.96       2.33      15.95
C      -0.90      -0.34      10.15
C       2.16       2.92      16.36
C      -1.03      -0.97       8.91
C       2.30       3.42      17.66
C       0.09      -1.49       8.26
C       1.25       3.32      18.57
C      -0.08       1.68      12.34
C       1.38       0.50      14.35
C       0.03       2.35      13.57
C       1.20      -0.20      13.15
C       0.81       1.75      14.59
C       0.49       0.43      12.10
C       2.74      -2.18      13.74
C      -2.08       3.81      13.47
C       1.62      -1.60      13.12
C       0.90      -2.72      12.64
C      -0.44       4.64      14.70
