16

C      30.77      17.49      27.64
S      32.02      19.76      27.76
C      33.03      17.57      26.40
S      28.42      18.17      29.20
O      33.98      18.39      26.14
C      31.93      18.11      27.21
O      32.93      16.36      26.02
C      27.41      20.37      30.55
F      30.44      16.21      27.36
F      30.00      21.72      29.59
O      26.45      19.55      30.81
C      29.67      20.45      29.32
O      27.50      21.58      30.92
C      28.51      19.83      29.75
C      30.50      19.61      28.55
C      29.94      18.33      28.41
