24

H      11.50       9.39       6.09
H      10.25      11.24       7.85
H      10.14       7.28       7.36
H       7.98       7.57       5.51
H       6.73       9.40       7.28
H       8.12      11.52       5.98
C       9.44      10.35       1.36
O       8.34      10.38       0.74
O      10.59      10.73       0.90
O      10.22       7.75      12.25
O       8.00       8.07      12.64
C       9.07       8.17      11.93
C       9.75      10.42       7.32
C      10.44       9.39       6.36
C       9.43       9.92       2.73
C       8.94       8.77      10.63
C       8.56      10.58       6.32
C       9.26       9.55       5.33
C       7.79       9.40       7.01
C       8.98       9.24       8.04
C       8.49       8.38       6.05
C       9.68       8.22       7.05
C       9.35       9.75       3.93
C       8.91       9.03       9.44
