16

O      13.92       2.45      21.30
C      12.73       3.70      17.02
C      10.42       5.96      14.83
S      12.27       4.08      19.56
S      12.36       4.08      15.38
C      14.21       2.18      20.08
O      10.74       5.68      13.61
O       9.55       6.81      15.20
C      11.03       5.32      17.26
C      13.62       2.82      17.68
C      11.15       5.23      15.87
C      13.47       2.92      19.05
O      15.09       1.35      19.68
C      11.94       4.45      17.91
Cl       9.96       6.31      18.13
H      14.33       2.15      17.21
