28

H      10.18       2.55      14.55
C      10.83       2.37      13.70
H      19.69       8.77      18.94
H      11.97       6.65      16.45
H      13.11       2.73      11.39
C      11.81       3.21      13.15
C      19.00       9.25      19.63
C      17.60       9.37      19.53
H      16.66       7.67      15.16
H      13.41       7.98      17.97
H      15.22       6.34      13.64
C      13.80       7.62      17.02
C      14.83       6.71      14.58
H      16.27      10.43      21.02
N      11.71       1.26      12.02
C      13.51       6.36      14.96
N      10.78       1.20      13.02
C      15.15       7.88      16.69
N      19.44       9.86      20.75
C      12.99       6.88      16.17
N      18.35      10.39      21.40
C      15.63       7.45      15.44
C      12.78       5.40      14.21
C      16.01       8.48      17.64
C      12.28       4.43      13.66
C      12.33       2.46      12.08
C      16.75       8.89      18.52
C      17.25      10.11      20.69
