44

O       2.66      21.94       5.46
O       0.86      22.73       4.35
H       2.88      22.10       7.38
H       2.76      22.87       8.91
H       3.11      26.16       9.76
H       3.89      24.71       9.44
H       0.70      24.55       3.71
H       1.02      26.24       3.71
H       1.15      28.51       6.20
H       0.11      27.60       5.16
H       3.11      30.17       6.50
H       3.89      31.62       6.82
H       2.88      34.23       8.88
H       2.76      33.46       7.35
H       1.15      27.82      10.06
H       0.11      28.73      11.10
H       0.70      31.78      12.55
H       1.02      30.09      12.55
C       1.79      33.47      11.02
C       1.79      22.87       5.24
C       1.85      24.10       6.03
C       1.35      25.32       5.48
C       1.48      26.52       6.21
C       2.03      26.50       7.52
C       2.50      25.27       8.07
C       2.45      24.09       7.32
C       2.50      31.06       8.19
C       2.03      29.84       8.74
C       1.48      29.81      10.05
C       1.35      31.02      10.78
C       1.85      32.23      10.24
C       2.45      32.24       8.94
N       2.09      27.57       8.39
N       2.09      28.76       7.88
N       2.99      22.95       7.92
N       3.00      25.22       9.38
N       0.74      25.42       4.24
N       1.03      27.69       5.60
N       3.00      31.11       6.88
N       2.99      33.38       8.34
N       1.03      28.64      10.67
N       0.74      30.92      12.02
O       2.66      34.39      10.81
O       0.86      33.60      11.91
