32

C       3.57       7.86       7.69
C       4.35      10.19       7.92
C       4.22      10.36       6.40
C       2.93      10.03       3.24
C       3.28       9.19       8.44
C       3.33       8.02       6.17
C       3.05       9.50       5.84
C       1.75       9.93       6.56
C       1.85       9.65       8.07
C       2.96       9.74       4.42
C       3.40       8.96       9.87
C       3.44       8.71      11.05
C       3.01      10.62       1.92
N       4.21      11.51       8.65
O       2.28       7.95      12.90
O       4.56       7.92      12.93
O       4.16      10.91       1.51
O       1.89      10.86       1.32
O       4.94      11.69       9.63
H       4.20       7.68       5.59
H       4.61       7.56       7.90
O       3.35      12.30       8.24
H       5.16      10.06       5.91
H       5.34       9.83       8.23
H       4.04      11.41       6.16
H       1.16       8.85       8.38
H       1.58      10.54       8.66
H       2.92       7.09       8.12
H       2.48       7.42       5.84
H       0.90       9.40       6.10
H       1.59      11.00       6.37
C       3.42       8.17      12.39
