29

C      11.10      15.69       1.78
C      12.38      15.11       2.34
C      12.35      13.67       2.85
C      12.09      13.46       4.37
C      12.38      11.97       4.66
C      13.00      14.39       5.20
C      13.10      14.03       6.69
C      14.25      13.08       6.97
C      10.61      13.81       4.67
C       9.56      12.76       4.39
O      11.21      16.90       1.40
O      10.06      14.96       1.70
O      14.01      12.02       7.64
O      15.39      13.42       6.51
O      10.30      14.91       5.11
H      12.73      15.82       3.10
H      13.11      15.20       1.52
H      11.63      13.09       2.27
H      13.34      13.22       2.66
H      11.83      11.32       3.98
H      13.45      11.77       4.50
H      12.14      11.68       5.69
H      12.60      15.41       5.12
H      14.01      14.39       4.77
H      12.16      13.61       7.08
H      13.32      14.94       7.26
H       8.57      13.22       4.47
H       9.69      12.31       3.39
H       9.64      11.95       5.12
