20

H       1.22       6.72      12.45
H      -1.16       6.72      12.45
H       1.22       7.46      14.05
H      -1.15       7.46      14.06
C       0.81       6.63      13.46
C      -0.74       6.63      13.46
C       0.81       4.22      13.22
H      -1.16       4.34      12.21
C       0.81       5.22      15.43
C      -0.74       4.22      13.22
C      -0.73       5.22      15.43
H       1.23       4.34      12.21
H       1.23       3.30      13.65
H      -1.15       3.30      13.65
H       1.23       4.29      15.84
N       1.32       5.36      14.04
N      -1.25       5.36      14.04
H       1.23       6.05      16.01
H      -1.14       6.05      16.02
H      -1.14       4.29      15.84
