40

H       8.40      11.24      15.03
H      10.34       8.75      19.59
H       8.60      11.37      17.50
H       9.74       8.15      25.28
H      10.46       6.12      24.42
H      11.03       6.93      22.95
H       9.32       6.45      23.09
H      10.94       6.53      17.11
H       8.72       5.89      17.98
H       9.02       7.05      19.29
H      10.06       5.62      19.13
H       8.62      12.49      21.60
H       8.83      12.56      24.08
H       8.40      11.14      19.59
H       9.72       8.32      21.65
H      10.26       7.37      15.09
C       9.65       9.49      19.17
C       9.05      10.37      20.01
C       9.33      10.48      24.28
C       9.49       9.42      17.73
C       9.34      10.60      25.74
C       9.28       9.22      13.43
C       9.94       8.26      17.03
C       9.35       9.30      14.91
C       8.84      10.42      15.60
C       8.93      10.47      16.98
C      10.18       6.85      23.65
C       9.51       6.39      18.57
C       9.90       8.24      15.64
C       9.54       9.25      22.19
C       9.59       9.25      23.60
C       9.02      11.63      23.53
C       8.91      11.60      22.15
C       9.19      10.40      21.46
N       9.91       8.11      24.28
N      10.45       7.15      17.74
O       9.52      11.76      26.26
O      10.01       8.35      12.86
O       9.15       9.54      26.46
O       8.47      10.03      12.84
