16

C      25.38      17.72      12.01
C      28.59      16.05      12.27
C      25.29      17.72      13.39
C      28.69      16.05      10.88
C      27.38      16.66      12.68
C      26.58      17.10      11.60
O      29.66      15.57       8.82
O      30.80      15.06      10.74
O      24.28      18.12      15.47
O      23.23      18.84      13.56
C      24.19      18.26      14.20
S      26.64      16.99      14.20
S      27.32      16.76      10.08
H      24.61      18.14      11.37
H      29.36      15.64      12.91
C      29.80      15.51      10.09
