16

O      10.41      13.99       6.27
C      10.58      12.78       5.90
C       9.56      12.20       4.97
C       7.76      10.89       3.19
C       8.42      12.87       4.47
C       8.90      10.21       3.68
C       7.55      12.21       3.61
C       9.77      10.88       4.55
C       6.74      10.30       2.25
O       5.74      11.05       1.96
O       6.94       9.13       1.82
H       6.68      12.73       3.23
H      10.64      10.35       4.93
O      11.53      12.01       6.26
Cl       8.00      14.50       4.87
Cl       9.32       8.59       3.29
