32

N       5.91      13.53       7.23
N       5.97      12.37       7.97
H      -0.69      14.15       7.00
N      -8.30      13.95       8.09
N      -8.36      12.89       8.94
H      -7.03      14.51       6.48
H       4.41      14.46       6.05
H      -7.22      11.12       9.18
H      -2.18      12.54       8.81
H      -2.15       9.54       6.14
C      -7.36      12.04       8.63
C      -6.61      12.57       7.56
C      -1.84      12.24       7.82
C      -0.91      11.03       7.51
C       2.55      12.25       6.77
C      -5.37      12.12       7.08
C      -1.03      13.13       6.82
C      -0.04      11.93       6.52
C      -1.95      12.68       5.65
C      -2.81      11.78       6.65
C      -1.01      11.45       5.36
C      -1.84      10.57       6.34
C       1.37      12.05       6.56
C      -4.22      11.83       6.79
C       4.69      13.62       6.69
C       3.90      12.51       7.06
C       4.78      11.76       7.88
C      -7.27      13.78       7.24
I      -2.78      13.96       4.21
I       4.45       9.99       8.90
Br      -0.15       9.86       8.82
Br      -0.42      10.88       3.63
