34

C       4.73      17.26      16.43
C       3.37      11.93      11.07
H       4.69      17.20      13.03
C       6.74      16.56      16.03
C       1.79      13.45      10.81
H       2.04      14.03      13.94
H       3.10      15.12      15.60
H       2.32      15.73      12.26
H       3.24      16.94      14.00
Br       4.60      13.40      16.46
Br       2.88      17.57      16.59
N       5.54      17.81      17.34
H       4.23      11.34      11.34
N       2.46      11.45      10.20
H       1.14      14.32      10.83
N       6.81      17.35      17.12
H       3.82      15.85      11.33
N       1.47      12.39      10.04
C       5.44      16.42      15.53
C       2.99      13.21      11.49
C       5.19      13.88      12.53
F       5.54      12.57      12.82
F       3.12      12.36      14.17
C       5.90      14.83      13.58
C       3.41      15.57      12.31
C       3.11      13.74      13.94
C       3.67      14.07      12.53
F       7.88      16.02      15.59
F       5.70      14.13      11.27
C       4.85      15.56      14.44
C       4.03      16.42      13.44
F       6.76      14.07      14.33
F       6.67      15.75      12.91
C       3.84      14.54      15.05
