38

N       8.38      12.85       6.45
N       7.33      12.42       7.20
N       3.59       7.21      -7.02
H       8.59      13.63       4.49
H       1.62       9.50      -3.41
H       7.04      14.36       2.85
N       2.53       6.76      -6.28
H       4.02      12.03       4.86
H       2.81      11.77       0.36
H       6.10      11.55      -2.89
H       5.89      14.02       0.71
H       5.70       9.94      -4.71
H       5.49      12.60      -0.92
H       2.02      11.07      -1.57
H       2.86      11.71       2.72
H       5.25      12.27       6.90
H       4.97       8.80      -6.80
H       1.64       7.35      -4.45
C       2.41       7.54      -5.19
C       3.41       8.54      -5.19
C       7.91      13.26       5.26
C       6.52      13.07       5.20
C       6.21      12.55       6.47
C       4.12       8.27      -6.38
C       3.64       9.56      -4.18
C       2.61       9.93      -3.28
C       2.84      10.82      -2.25
C       4.11      11.40      -2.05
C       5.11      11.10      -3.00
C       4.88      10.19      -4.04
C       5.48      13.57       1.62
C       6.13      13.76       2.83
C       4.44      12.49       3.96
C       3.77      12.30       2.75
C       4.33      12.77       1.53
C       4.48      12.18      -0.88
C       3.79      12.26       0.28
C       5.67      13.16       4.01
