25

N      -1.87       2.19       6.40
O      -0.61       5.35       9.75
H       2.13       4.70      12.20
O      -0.40       5.17      11.98
H       4.12       1.57      10.05
O       4.52       4.28      12.93
H       2.22       1.44       8.48
O       5.50       2.59      11.82
H      -3.27       2.04       7.92
H      -1.68       2.57       9.76
H       1.38       3.03       6.74
H      -0.32       2.44       5.04
C       1.06       2.98       9.44
C       1.02       3.86      10.55
C       2.14       3.97      11.39
C       3.28       3.19      11.19
C       3.27       2.23      10.17
C       2.19       2.15       9.30
C      -0.09       4.84      10.79
C       4.50       3.38      12.04
C      -2.23       2.26       7.70
C      -1.34       2.57       8.73
C       0.00       2.83       8.41
C       0.36       2.82       7.05
C      -0.60       2.50       6.09
