28

H       9.52       8.94       9.46
H       9.54      13.44       9.29
H      13.22       7.96       7.34
H      15.00       8.76       5.07
H      14.72      13.40       4.82
H      13.18      14.32       6.99
C      11.65      13.98       8.59
C      11.59       8.32       8.76
C      11.52      12.57       8.21
C      12.49      11.84       7.41
C      10.42      11.88       8.75
C      13.31      12.48       6.46
C      14.21      11.79       5.64
C      11.53       9.71       8.32
C      10.42      10.45       8.80
C      12.53      10.39       7.49
C      13.44       9.72       6.63
C      14.29      10.40       5.74
O      10.61      14.59       9.06
O      10.52       7.74       9.20
O      12.71       7.68       8.76
O      12.79      14.58       8.55
O       9.37       9.93       9.44
O       9.37      12.45       9.36
O      13.54       8.36       6.48
O      15.13       9.72       4.92
O      14.97      12.45       4.73
O      13.24      13.82       6.14
