50

H       5.39       6.28       4.83
H       5.32      10.38      -2.06
H       5.69      10.38       2.06
H       5.60       5.93      -1.29
H       5.41       5.93       1.29
H       4.31      12.55      -4.86
H       3.73      11.54      -3.51
H       3.47      10.78      -6.48
H       2.81       9.88      -5.13
H       1.32      11.86      -4.53
H       1.02      11.28      -6.18
H       1.98      12.75      -5.91
H       6.70      12.55       4.86
H       7.28      11.53       3.51
H       7.54      10.78       6.49
H       8.20       9.88       5.13
H       9.69      11.85       4.53
H       9.99      11.28       6.18
H       9.03      12.75       5.91
H       5.61       6.28      -4.82
C       5.38       8.42       6.34
C       5.55       8.23       2.02
C       5.48       8.14      -0.61
C       5.52       8.14       0.61
C       5.63       8.42      -6.34
C       5.52       8.42      -4.84
C       5.54       7.06      -2.82
C       5.47       7.06       2.82
C       5.56       7.17      -4.20
C       5.48       8.42       4.84
C       5.44       7.17       4.20
C       4.09      11.51      -4.56
C       3.05      10.89      -5.48
C       1.77      11.74      -5.52
C       6.92      11.51       4.56
C       7.96      10.89       5.48
C       9.24      11.74       5.52
C       5.41       9.59      -4.05
C       5.59       9.59       4.05
C       5.38       9.48      -2.66
C       5.62       9.48       2.66
C       5.46       8.23      -2.02
O       5.73       7.35       6.93
O       5.60       5.81      -2.26
O       5.40       5.81       2.26
O       5.37      10.85      -4.62
O       5.64      10.85       4.62
O       5.28       7.35      -6.93
O       4.94       9.47       6.90
O       6.07       9.47      -6.90
