20

H      16.90       4.40       3.73
H      11.48       1.02       4.42
H      13.87       2.51       0.88
H      14.51       2.91       7.26
C      16.10       3.90       5.87
O      15.91       3.78       7.14
O      17.12       4.52       5.37
C      12.28       1.52       2.28
O      11.27       0.89       2.77
O      12.46       1.63       1.00
O      16.35       4.06       2.97
O      12.02       1.36       5.17
O      14.62       2.97       1.34
O      13.76       2.45       6.80
C      15.13       3.29       4.95
C      13.25       2.12       3.19
C      15.31       3.41       3.54
C      13.07       2.01       4.60
C      14.38       2.83       2.67
C      14.00       2.59       5.48
