42

H       1.10       9.32       7.95
H      -1.41       9.22       7.79
H      -3.12       3.64       8.80
H      -2.66       4.93       9.93
H      -1.94       3.16      11.62
H      -3.67       3.03      11.20
H      -2.49       1.89      10.50
H       0.62       2.14       6.66
H       2.34       2.31       7.13
H       2.90       3.09       4.80
H       2.24       1.43       4.80
H       1.21       2.81       4.31
H      -0.66       4.69       5.32
H      -2.36       5.09       5.79
H      -1.97       3.52       5.02
H       2.24       3.80      10.82
H       0.74       4.73      10.57
H       2.33       5.42      10.07
C       2.83       7.25       7.88
C      -2.99       7.10       7.60
C       0.65       5.98       7.93
C      -0.74       5.91       7.91
C       1.35       7.19       7.94
C      -1.51       7.08       7.80
C       0.58       8.36       7.93
C      -0.82       8.30       7.84
C      -0.76       4.36       7.98
C       0.88       4.47       7.88
C      -2.45       3.88       9.64
C      -2.64       2.94      10.81
C       1.56       2.67       6.44
C       2.00       2.49       5.00
C      -1.60       4.29       5.71
C       1.73       4.50      10.15
O       3.39       6.16       7.52
O      -3.59       5.99       7.76
O       3.41       8.34       8.18
O      -3.52       8.20       7.27
O      -1.08       3.77       9.21
O       1.38       4.09       6.64
O      -1.42       3.63       6.97
O       1.63       3.84       8.89
