21

C       1.29      15.44       0.54
C       0.23      14.59       0.85
C       2.19      17.76       0.04
N      -3.53      12.53       1.19
N      -2.17      14.27       1.22
H      -5.02      13.34       2.52
C      -0.24      17.31       0.38
H      -3.31      15.54       2.55
O       1.96      19.01       0.11
C      -4.08      13.50       2.00
H      -1.71      12.51       0.04
O       3.34      17.27      -0.26
C      -3.25      14.59       2.03
H      -2.34      16.84       0.66
C      -2.38      13.02       0.72
H      -0.41      18.36       0.15
C      -1.07      15.12       0.91
H       2.31      15.06       0.48
C      -1.31      16.47       0.66
H       0.41      13.53       1.05
C       1.06      16.81       0.33
