24

H      10.40       1.96       9.33
H      10.18       1.32      13.62
H       3.48       0.79       9.36
H       3.41       1.06      13.68
C       6.10       1.94      12.67
C       6.08       1.90      10.27
C       7.48       2.06      12.66
C       7.47       2.01      10.26
C       8.21       2.00      11.46
C       5.37       1.77      11.48
N      11.77       1.35      10.82
N      11.70       1.15      12.17
N       2.18       0.07      10.88
N       2.16       0.16      12.24
H       5.58       1.91      13.64
H       5.55       1.84       9.32
H       8.02       2.13      13.61
H       7.98       2.03       9.30
C      10.56       1.74      10.39
C      10.44       1.42      12.57
C       9.65       1.80      11.47
C       3.27       0.73      10.42
C       3.24       0.88      12.63
C       4.00       1.25      11.51
