13

O       8.50       4.15       6.52
O       8.91       2.16       5.59
O       8.86       6.10       8.90
O       8.04       5.11      10.72
C       9.19       3.08       6.40
C      10.44       2.96       7.28
C       9.66       3.88       9.44
C       8.80       5.11       9.71
H      10.44       1.97       7.76
H      11.30       3.01       6.60
H      10.24       3.65      10.34
H       8.97       3.03       9.30
N      10.53       4.04       8.26
