18

O      11.28      14.73      16.94
O      13.02      13.37      16.98
C      13.54      14.74      22.12
N      12.04      13.93      17.49
O       8.64      11.89      19.03
H      11.31      13.32      22.75
H      13.61      14.79      19.42
H       9.68      12.27      21.15
O      10.07      12.15      17.28
O      13.32      14.57      23.37
O      14.50      15.38      21.60
C      11.45      13.41      21.68
C      10.71      12.96      19.40
C      12.56      14.11      21.18
C      11.82      13.68      18.94
C       9.73      12.29      18.49
C      12.75      14.24      19.80
C      10.54      12.84      20.79
