42

C      -5.93       8.46       8.93
H      -8.46       0.94       9.70
C      -4.72       8.62       9.63
H      -6.25      -0.14      10.33
C      -4.07       9.85       9.65
H      -4.19       1.26      10.28
C      -4.60      10.95       8.98
H      -4.36       3.69       9.66
C      -5.81      10.80       8.28
H      -4.28       7.77      10.17
C      -6.46       9.57       8.25
H      -3.13       9.96      10.19
C      -3.84      12.25       8.95
H      -6.22      11.66       7.74
C      -9.17       7.58       8.65
H      -7.38       9.47       7.68
C     -10.18       7.12       7.78
H     -10.04       6.19       7.23
C     -11.34       7.85       7.60
H     -12.11       7.51       6.91
C     -11.54       9.05       8.30
H     -10.75      10.40       9.78
C     -10.57       9.49       9.21
H      -8.64       9.10      10.09
C      -9.40       8.76       9.38
H      -4.85       5.91       9.13
C     -12.76       9.87       8.00
C      -7.52       1.49       9.68
N      -7.62       2.79       9.36
C      -6.30       0.91      10.02
N      -8.02       5.41       8.90
C      -5.15       1.69      10.01
N      -5.89       6.00       9.10
C      -5.24       3.04       9.66
O      -4.38      13.19       8.26
C      -6.50       3.56       9.35
O      -2.73      12.31       9.55
C      -6.77       4.96       9.08
O     -13.38       9.70       6.92
C      -7.95       6.78       8.81
O     -13.11      10.77       8.87
C      -6.60       7.17       8.93
