36

O       2.47       6.01       4.07
O       3.37       7.90       3.38
O       8.08       4.85       7.75
O       9.32       5.40       6.02
O       3.22       6.76       9.76
O       1.33       5.86      10.44
C       2.46       6.77       6.91
C       6.59       2.64       6.91
C       3.81       2.22       8.05
C       4.62       6.50       4.75
F       8.15       6.87       4.25
F       1.80       3.29      10.84
C       7.01       5.42       5.78
C       2.73       4.61       9.08
F       2.36       1.07       9.58
F       5.93       7.42       2.99
C       2.90       2.19       9.08
C       5.82       6.76       4.14
C       7.04       6.33       4.74
C       2.47       3.41       9.69
C       3.50       4.65       7.86
C       5.74       4.93       6.25
C       4.58       5.73       5.97
C       4.30       3.49       7.58
C       3.53       5.70       6.91
C       5.53       3.70       6.91
N       4.04       1.00       7.26
N       3.39       6.84       4.02
N       8.23       5.19       6.57
N       2.38       5.84       9.81
O       1.38       6.49       7.52
O       7.45       2.68       5.97
O       2.74       7.85       6.30
O       6.55       1.78       7.85
O       4.38       1.15       6.08
O       3.83      -0.09       7.81
