40

H      22.54       0.03       5.46
H      21.11       1.46       1.62
N      16.32      -4.77       5.08
N      16.09      -2.38       4.90
H      14.11      -5.54       8.54
H      12.67      -1.70       7.14
N      15.17      -2.40       5.84
N      15.39      -4.79       6.02
H      19.57      -8.49       0.02
H      15.73      -7.08      -1.42
C      22.36       0.56       4.53
C      21.40       0.31       3.54
C      21.64       1.28       2.55
N      18.82      -5.06       2.24
N      16.43      -4.87       2.04
N      18.83      -5.98       1.30
N      16.44      -5.80       1.11
C      13.58      -4.61       8.37
C      13.82      -3.62       7.40
C      12.85      -2.63       7.66
C      18.64      -8.32      -0.51
C      17.64      -7.35      -0.27
C      16.66      -7.60      -1.24
C      18.59      -2.54       3.55
C      20.38      -0.71       3.54
C      16.63      -3.57       4.56
C      14.84      -3.60       6.38
C      17.62      -4.54       2.57
C      17.64      -6.34       0.76
N      17.61      -3.55       3.56
N      22.67       2.06       2.93
N      23.13       1.59       4.15
N      12.08      -3.02       8.69
N      12.55      -4.24       9.14
N      17.04      -8.63      -2.01
N      18.26      -9.09      -1.54
N      18.90      -2.00       2.36
N      19.12      -2.20       4.74
N      20.04      -1.26       4.74
N      19.83      -1.07       2.35
