42

N      11.31      16.99      12.44
N      12.73      17.35       9.98
N      12.49      18.56       8.01
H      12.92      16.51       8.02
H      11.23      16.93       8.51
H      14.81      17.30       9.56
H      14.31      18.57      10.72
H      13.75      20.03       8.90
H      14.60      18.86       7.86
H      10.82      16.53      14.46
H      11.94      17.89      14.22
H      12.70      15.38      12.78
N       9.70      19.56      12.03
N      11.11      19.92       9.57
H      13.40      17.01      12.61
H      13.76      15.57      10.56
H      12.00      15.42      10.39
N       9.93      18.35      14.00
C      12.28      17.23       8.56
C      14.03      18.04       9.81
C      13.79      18.98       8.59
C      11.03      17.41      13.83
C      12.62      16.34      12.23
C      12.80      16.08      10.74
C      10.15      19.67      13.45
C       8.39      18.86      12.21
C       8.64      17.92      13.42
C      11.39      19.49       8.18
H       9.51      20.39      13.99
H      11.20      19.97      13.50
C       9.81      20.57       9.78
C       9.62      20.82      11.27
H       7.61      19.60      12.45
H       8.11      18.34      11.29
H       8.67      16.87      13.11
H       7.83      18.05      14.15
H      11.61      20.38       7.55
H      10.48      19.01       7.79
H       9.73      21.52       9.23
H       9.03      19.89       9.40
H       8.67      21.34      11.45
H      10.43      21.49      11.62
