16

O       6.09       7.57       0.24
O       3.87       7.56      -0.23
C       4.97       8.15       0.03
O       3.69      14.60       0.41
C       4.74      12.47       0.13
C       4.92       9.65       0.08
C       3.58      11.67       0.05
C       6.08      10.42       0.18
C       3.68      10.28       0.01
C       5.98      11.81       0.19
C       4.76      13.97       0.13
O       5.88      14.51      -0.14
H       7.05       9.93       0.22
H       2.78       9.67      -0.08
H       6.87      12.43       0.24
Br       1.80      12.35      -0.08
