42

H      13.23       7.05      11.50
H      24.95       7.26       8.38
H      13.25      11.65       7.56
H      24.98      11.42      10.60
H      15.98       7.77      11.59
H      22.03       6.72       7.89
H      16.00      10.95       7.52
H      22.05      11.92      11.24
H      16.50       8.85       6.91
H      19.08       9.00      12.65
H      16.48       9.86      12.20
H      19.10       9.69       6.49
C      13.30       8.47      10.28
C      23.39       8.37       8.86
C      13.31      10.23       8.78
C      23.40      10.31      10.17
C      14.70       8.43      10.31
C      21.98       8.33       8.89
C      14.71      10.29       8.78
C      22.00      10.32      10.21
C      15.45       9.36       9.55
C      21.27       9.32       9.56
C      17.67       9.46       8.37
C      19.07       9.21      10.76
C      17.66       9.25      10.75
C      19.07       9.46       8.37
C      19.79       9.33       9.57
C      16.93       9.36       9.56
N      12.61       9.35       9.52
N      24.08       9.34       9.50
O      12.58       7.61      11.01
O      23.98       7.39       8.16
O      12.59      11.08       8.02
O      24.02      11.31      10.83
O      15.22       7.41      11.07
O      21.33       7.30       8.27
O      15.24      11.31       8.03
O      21.36      11.34      10.86
O      17.07       9.62       7.11
O      19.74       9.05      11.93
O      17.05       9.10      12.01
O      19.76       9.62       7.21
