16

C      18.58       9.76       3.91
C      18.46      13.36       4.19
C      18.53       9.63       5.30
C      18.53      13.46       2.81
C      18.48      12.01       4.60
C      18.56      11.11       3.51
S      18.44      11.18       6.10
S      18.61      11.92       2.00
O      18.61      14.54       0.74
O      18.45      15.80       2.64
C      18.53       8.43       6.14
O      18.61       7.30       5.54
O      18.46       8.62       7.40
Br      18.67       8.37       2.65
C      18.53      14.69       2.01
H      18.41      14.24       4.83
