17

C      17.59       8.94      11.07
C      15.66       8.38      12.55
H      17.76      10.91       8.30
O      13.93      11.56       8.67
H      20.01       9.08      10.32
O      14.49       8.69      12.99
H      18.21       8.28      11.68
C      15.99      10.63       9.52
C      16.24       9.13      11.40
C      18.15       9.60       9.96
O      16.32       7.43      13.07
H      14.39      10.12      10.89
C      17.33      10.43       9.18
C      15.44       9.98      10.63
O      15.84      12.52       8.09
O      19.44       9.48       9.59
C      15.19      11.60       8.73
