28

H       1.47       8.46       3.34
H       5.23      13.90      -3.34
H       1.56      10.09       1.43
H       5.14      12.26      -1.43
H       0.86      12.58      -1.37
H       5.84       9.78       1.37
H       0.95      14.20      -3.30
H       5.75       8.15       3.30
C       3.14      15.08      -4.58
C       3.57       7.28       4.58
C       3.10      14.14      -3.43
C       3.61       8.22       3.43
C       4.28      13.60      -2.90
C       2.42       8.76       2.90
C       4.24      12.70      -1.84
C       2.47       9.65       1.84
C       2.99      12.33      -1.29
C       3.71      10.02       1.29
C       1.81      12.88      -1.82
C       4.90       9.48       1.82
C       1.86      13.77      -2.88
C       4.85       8.58       2.88
N       2.82      11.43      -0.23
N       3.89      10.93       0.23
O       4.28      15.41      -5.03
O       2.42       6.94       5.03
O       2.02      15.46      -5.05
O       4.69       6.90       5.05
