41

C       7.30      10.37      15.29
C       6.11      11.11      15.35
H      10.40       9.02      18.22
C       5.49      11.45      14.15
H       9.70       8.07       9.99
C       6.06      11.05      12.95
C       7.24      10.29      12.99
C       8.00      10.04      16.54
C       8.43       9.86      18.62
C       7.18      10.29      22.13
C       7.21      10.30      20.74
C       8.36       9.86      20.07
H       5.71      11.42      16.31
C       9.45       9.41      20.85
H       4.56      12.03      14.16
C       9.33       9.44      22.24
H       5.62      11.30      11.98
H       6.30      10.63      22.68
C       7.84       9.83      11.73
H       6.35      10.65      20.18
C       8.20       9.62       9.64
H      10.36       9.04      20.40
C       7.29      10.62       6.15
C       7.28      10.56       7.54
H      10.15       9.11      22.88
C       8.20       9.72       8.19
H       6.60      11.24       5.60
C       9.10       8.98       7.41
H       6.56      11.14       8.11
H       9.83       8.29       7.84
C       9.06       9.12       6.03
N       7.85       9.95      14.14
H       9.75       8.57       5.40
N       9.25       9.53      16.58
N       9.49       9.43      17.89
N       7.46      10.26      17.78
N       8.22       9.87      22.87
N       8.81       8.89      11.65
N       9.02       8.78      10.32
N       7.44      10.30      10.51
N       8.17       9.92       5.41
