12

C       9.73       4.07       7.56
C       7.31      -4.85       7.68
O       8.74       4.88       7.57
O       8.16      -5.74       8.01
O      10.96       4.37       7.56
O       6.09      -5.04       7.37
C       9.40       2.66       7.55
C       7.76      -3.49       7.66
C       9.10       1.47       7.57
C       8.10      -2.31       7.64
C       8.77       0.18       7.59
C       8.46      -1.02       7.61
