32

C       7.90       0.90      29.72
H       4.62       1.09      31.79
C       7.95       1.21      31.07
H       8.89       1.42      31.57
C       6.63      -0.18      25.12
N       5.45      -0.21      25.78
H       4.68      -1.46      21.09
H       4.53       0.52      29.34
N       5.45       0.06      27.07
N       7.82       0.43      26.98
H       8.82       0.85      29.13
N       7.81       0.16      25.70
H       4.54      -0.89      23.52
Cl       9.52      -0.65      20.93
H       8.79      -0.18      23.54
C       6.83       1.76      33.22
O       5.71       1.85      33.88
O       7.95       2.12      33.67
C       6.64       0.36      27.65
O       5.65      -1.78      18.96
C       5.49      -0.86      22.99
O       7.90      -1.93      19.00
C       5.57      -1.17      21.64
C       7.96      -0.77      21.65
C       7.88      -0.46      23.01
C       6.66      -0.51      23.69
C       6.80      -1.14      20.94
C       6.80      -1.63      19.53
C       6.76       1.29      31.82
C       5.53       1.02      31.20
C       5.48       0.71      29.84
C       6.67       0.65      29.09
