40

H       2.19       9.32       7.55
H       2.18      11.56       8.69
H       2.19      14.41      11.20
H       1.79      16.36       7.41
H       0.92      11.56       2.90
H       2.14      10.28       2.91
H       2.63      11.99       2.86
H       2.85      13.94       4.00
H       1.88      14.74       5.26
H       1.09      13.86       3.92
H       1.17      16.72      13.24
H       2.76      17.48      13.14
H       2.63      15.71      13.18
H       2.77      19.37       8.09
H       1.17      19.70       8.75
H       1.34      18.69       7.29
C       1.99      19.08      11.19
C       1.90       8.82       4.97
C       1.99      10.18       5.58
C       2.12      10.25       6.98
C       2.12      11.48       7.61
C       2.04      12.66       6.85
C       1.98      12.60       5.43
C       1.94      11.34       4.79
C       2.09      15.34      10.64
C       2.00      15.27       9.24
C       1.88      16.44       8.49
C       1.89      17.69       9.11
C       1.98      17.75      10.52
C       2.08      16.58      11.29
C       1.91      11.28       3.29
C       1.94      13.86       4.61
C       2.17      16.62      12.79
C       1.78      18.93       8.27
N       2.02      13.94       7.43
N       2.03      13.97       8.69
O       1.06      19.34      12.03
O       2.92      19.90      10.88
O       0.92       8.59       4.18
O       2.79       7.96       5.30
