13

O       4.63      -2.57      11.76
H       9.94      -3.97      12.79
O       5.68      -1.69      13.51
C       8.88      -3.97      12.54
C       6.98      -4.59      11.58
N       8.32      -4.89      11.71
C       6.79      -3.44      12.36
O       4.84      -5.42      10.98
H       8.82      -5.64      11.18
N       7.99      -3.08      12.96
C       6.10      -5.50      10.79
O       6.66      -6.32      10.01
C       5.63      -2.54      12.55
