32

C       9.75       3.30       5.00
C       9.31       7.40      10.81
C      10.89       3.99       5.47
C      10.77       4.74       6.64
C       8.17       7.19      10.00
C       8.29       6.34       8.90
C      10.51       6.73      10.50
C      10.60       5.87       9.42
C       8.55       3.36       5.74
C       8.46       4.09       6.91
C       9.57       4.82       7.38
C       9.49       5.67       8.58
H      11.63       5.32       6.97
H       7.43       6.22       8.24
H      11.37       6.89      11.15
H      11.53       5.33       9.23
H       7.70       2.80       5.37
H       7.53       4.09       7.48
C      12.23       3.98       4.77
C       6.83       7.85      10.25
O       8.24       8.73      12.47
O      10.83       2.17       3.20
O       8.56       2.23       3.26
H      12.92       4.67       5.27
O      10.50       8.69      12.39
H      12.15       4.25       3.71
H       6.15       7.61       9.42
H       6.91       8.94      10.34
H       6.39       7.50      11.19
H      12.67       2.97       4.78
C       9.35       8.33      11.97
C       9.72       2.51       3.74
