85

C       5.51      16.48      17.52
C       4.54      17.23      16.84
C       4.45      17.14      15.45
C       6.74      21.04       9.83
H       7.16      20.49       7.20
H       6.65      18.66       5.28
C       6.02      22.05       9.17
H       3.89      14.06       5.26
C       6.40      23.38       9.27
H       3.35      12.23       7.15
C       7.54      23.71      10.02
H       4.50      11.85      12.37
C       8.28      22.73      10.67
C       7.88      21.40      10.58
H       5.04      13.66      14.28
H       5.52      18.99      14.29
S       2.90       7.14       9.73
S       5.61      16.61      19.30
H       6.05      20.81      12.39
S       8.05      25.42      10.06
H       4.32      18.29       4.64
N       5.72      17.69       8.34
H       4.36      18.33       2.17
N       4.81      15.00       8.33
H       5.31      16.40       0.91
N       4.94      14.95      11.20
H       6.22      14.44       2.16
N       5.58      17.72      11.21
H       6.21      14.43       4.63
H       5.37      11.08       8.29
O       2.92       6.73       8.31
H       4.77       8.67       8.25
O       4.02       6.51      10.48
O       1.60       6.93      10.37
H       1.74       9.37      11.23
O       7.04      16.74      19.65
H       2.27      11.81      11.18
O       5.04      15.36      19.83
H       6.95      14.92      14.86
H       7.10      15.04      17.34
O       4.82      17.79      19.64
O       9.24      25.53      10.92
H       3.89      17.89      17.40
O       8.34      25.73       8.64
H       3.69      17.72      14.93
H       5.14      21.79       8.58
O       6.92      26.22      10.55
H       5.82      24.16       8.78
H       9.17      23.01      11.23
H       8.46      20.62      11.07
C       6.23      18.96       8.56
C       6.68      19.52       7.31
C       6.41      18.60       6.34
C       5.78      17.47       6.98
C       5.27      16.36       6.30
C       4.76      15.23       6.96
C       4.13      14.11       6.31
C       3.85      13.18       7.27
C       4.30      13.72       8.53
C       4.26      13.05       9.76
C       4.62      13.62      10.99
C       4.68      12.91      12.24
C       4.97      13.82      13.21
C       5.12      15.10      12.56
C       5.28      16.32      13.23
C       5.42      17.55      12.57
C       5.59      18.83      13.23
C       5.86      19.75      12.26
C       5.90      19.05      11.00
C       6.28      19.63       9.79
C       5.27      16.36       4.82
C       4.77      17.46       4.10
C       4.79      17.47       2.70
C       5.30      16.39       2.00
C       5.80      15.29       2.70
C       5.79      15.28       4.09
C       3.87      11.61       9.75
C       4.57      10.71       8.93
C       4.24       9.36       8.91
C       3.23       8.88       9.75
C       2.53       9.75      10.58
C       2.84      11.11      10.57
C       5.32      16.32      14.72
C       6.25      15.55      15.42
C       6.35      15.62      16.81
