17

C      15.38       3.54      18.47
O      14.45       4.30      17.98
O      15.50       2.30      18.22
C      19.20       5.91      22.08
C      17.13       6.06      20.71
H      19.26       3.41      21.03
H      16.99       7.08      21.06
H      17.56       2.40      19.49
O      15.18       6.32      19.42
O      20.28       5.26      22.28
O      18.88       7.03      22.61
C      16.35       4.17      19.38
C      18.22       5.30      21.14
C      16.20       5.52      19.82
C      18.39       3.98      20.69
H      14.65       5.78      18.78
C      17.46       3.43      19.84
