18

O       6.89       3.45       3.60
O       9.33       5.27       7.59
O       8.22       5.22       9.52
C       4.54       4.38       6.21
C       4.54       4.82       7.54
C       3.25       5.11       8.24
O       4.61       3.45       3.60
O       2.17       5.27       7.59
O       3.28       5.22       9.52
H       5.75       5.34       9.25
H       3.61       4.21       5.68
C       5.75       4.15       5.55
C       5.75       5.02       8.21
C       5.75       3.65       4.14
C       6.96       4.38       6.21
C       6.96       4.82       7.54
C       8.25       5.11       8.24
H       7.89       4.21       5.68
