42

H       4.63      25.42      24.88
H       8.70      30.05      28.93
C       7.87      31.65      30.05
C       5.48      24.18      23.34
H       8.66      26.44      23.74
C       5.51      25.25      24.24
C       7.80      30.64      29.08
H       4.59      31.00      28.02
C       6.64      26.06      24.42
C       6.65      30.36      28.33
H       8.63      24.57      22.10
H       4.70      32.83      29.66
C       7.78      25.81      23.64
H       8.51      26.59      26.31
H       4.74      29.80      26.43
C       5.52      31.17      28.56
C       7.76      24.77      22.72
C       5.57      32.20      29.49
H       8.50      28.36      27.99
H       4.73      27.97      24.80
C       6.64      23.95      22.55
C       6.72      32.45      30.25
C       7.69      27.30      26.33
C       5.57      29.09      26.43
C       7.68      28.31      27.28
C       5.56      28.06      25.51
C       6.63      29.25      27.35
C       6.63      27.15      25.42
C       4.26      23.30      23.31
C       9.13      31.80      30.84
O       7.88      22.47      21.17
O       5.52      33.96      31.64
H       4.52      22.25      23.50
H       3.54      23.63      24.08
H       3.76      23.30      22.34
H       8.92      31.74      31.91
H       9.84      31.01      30.57
H       9.60      32.78      30.69
O       5.61      22.39      21.12
O       7.79      33.99      31.70
C       6.71      22.86      21.54
C       6.68      33.54      31.27
