24

O       2.68       5.78      13.46
O       6.35      10.43       9.19
H       4.62       6.30      14.45
H       6.99       6.04      15.02
H       8.77       6.97      13.52
H       8.12       8.18      11.47
O       1.42       7.65      13.27
H       3.99       9.62       9.54
H       1.78       9.48      10.17
H       1.21       8.63      11.58
C       2.50       6.98      13.07
C       5.38       6.71      13.78
C       6.71       6.56      14.10
C       7.71       7.09      13.26
C       7.36       7.77      12.12
C       5.99       7.94      11.76
C       4.96       7.41      12.61
C       3.58       7.64      12.30
C       3.23       8.49      11.23
C       4.26       9.00      10.40
C       5.59       8.71      10.62
C       6.57       9.25       9.63
N       1.94       8.81      10.90
O       7.52       8.47       9.27
