22

N       9.65       8.80       1.74
N      14.24      13.46       9.20
H      10.08      13.11       6.96
H       8.66      11.63       5.59
F       7.88      11.44       3.11
F      11.06      14.68       8.62
F      11.51      10.01       5.17
C       8.71      10.41       2.88
C      12.16      13.93       8.72
F      11.85      10.40       7.67
F      11.21       8.01       3.25
F      14.41      11.28       8.52
C       9.68       9.88       3.75
C      12.32      12.59       8.33
C       9.67      11.32       5.83
C      10.38      12.07       6.84
C      10.22      10.41       4.99
C      11.44      11.70       7.60
C      10.22       8.86       2.95
C      13.67      12.38       8.68
N       8.68       9.79       1.70
N      13.27      14.46       9.24
