15

N       8.46       8.81       1.76
H      11.77      13.10       4.00
H      10.10       8.48       3.74
N      11.86      11.18       4.76
C       9.00      10.05       1.82
C       9.97      10.45       2.83
C      10.46      11.76       2.91
C      11.40       9.91       4.69
C      11.38      12.09       3.88
C      10.45       9.51       3.76
N       7.73      10.06       0.14
N       8.55      10.84       0.82
N       7.68       8.85       0.71
H      10.11      12.52       2.20
H      11.82       9.21       5.41
