15

C       7.41       7.39       2.85
H       5.80       5.36       0.46
O       6.41       4.61      -4.76
O       8.28       8.56       4.64
O       4.75       6.18      -4.77
H       8.12       8.61      -0.04
O       7.62       7.96      -0.57
O       7.00       6.69       5.00
C       5.65       5.48      -4.21
C       7.58       7.56       4.27
C       5.84       5.68      -2.80
C       6.25       6.05      -0.24
C       7.22       7.22       1.66
C       7.02       7.06       0.27
C       6.04       5.86      -1.61
