9

H       3.29       8.75      15.44
O       4.39       8.08      12.48
O       2.36       7.04      14.69
O       4.70       5.90      15.17
O       5.79       7.89      15.27
H       2.71       9.11      12.99
C       3.47       7.93      14.73
C       4.77       7.19      15.10
C       3.55       8.45      13.28
