52

C       0.72       1.17       4.10
C       0.68       0.70       7.00
C       5.11      -1.49       3.89
C       5.22      -1.49       6.76
C       6.17       1.10       9.93
C       6.49       1.17      12.77
C       1.48      -0.80      10.50
C       2.06      -1.38      13.24
N       2.90      -0.40       8.20
N       3.82       0.21       8.82
O       5.42      -0.12      15.12
O       3.20       0.21      15.12
O       1.80      -0.11       1.89
O       4.05       0.13       1.95
H      -0.09       0.51       3.77
H       1.07       1.71       3.22
H       0.30       1.90       4.80
H       0.84       1.69       7.45
H       0.53      -0.01       7.83
H      -0.26       0.74       6.43
H       5.93      -0.80       3.68
H       4.77      -1.88       2.93
H       5.52      -2.33       4.47
H       5.28      -2.57       6.51
H       5.17      -1.40       7.84
H       6.18      -1.04       6.44
H       6.51       2.09      10.26
H       5.84       1.17       8.89
H       7.04       0.43       9.97
H       7.37       0.56      12.50
H       6.47       1.26      13.85
H       6.66       2.16      12.33
H       1.46      -1.76       9.96
H       1.17      -0.05       9.77
H       0.73      -0.84      11.29
H       1.24      -0.75      13.62
H       2.53      -1.85      14.11
H       1.61      -2.18      12.63
C       4.29       0.01      14.50
C       2.93      -0.04       2.54
C       2.91      -0.16       4.02
C       4.00      -0.81       4.66
C       4.06      -0.84       6.07
C       2.97      -0.30       6.79
C       1.84       0.25       6.15
C       1.84       0.39       4.76
C       5.06       0.57      10.80
C       3.86       0.09      10.24
C       2.83      -0.45      11.05
C       3.06      -0.59      12.43
C       4.23      -0.04      13.01
C       5.24       0.55      12.20
