48

C       5.64       8.71      10.47
H       9.46      13.80      22.07
H       5.94      12.62      24.32
C       7.47      10.08      15.86
C       6.69       8.14      13.94
C       2.32       7.08      13.94
C       5.17      11.39      21.92
I       1.88      10.84      12.95
I       4.58      14.75      16.15
H       5.90      11.28      17.75
N       3.91       7.12      10.76
H       3.31      12.13      15.30
H       6.25       9.56      10.83
H       6.73      15.23      18.49
H       4.30      11.81      19.52
H       7.66      15.23      20.79
N       3.05       6.68      11.65
N       9.12      13.02      24.01
N       8.02      12.64      24.71
H       7.73      10.75      16.70
H       6.89       7.47      14.80
H       2.39       7.77      14.81
O       5.88       8.22       9.34
C       4.60       8.17      11.30
H       5.91      11.06      22.67
C       3.14       7.43      12.78
C       4.12       8.42      12.60
O       4.11      10.79      21.78
O       8.31       9.29      15.41
O       7.08       7.86      12.81
O       1.61       6.08      13.98
C       8.73      13.46      22.81
C       6.94      12.83      23.94
C       7.33      13.34      22.68
C       4.55       9.43      13.58
C       3.70      10.50      13.95
C       4.01      11.36      15.00
C       5.21      11.19      15.72
C       6.12      10.19      15.29
C       5.78       9.31      14.25
C       6.40      14.48      19.22
C       6.92      14.47      20.50
C       5.57      12.55      21.07
C       5.04      12.57      19.78
C       5.50      13.47      18.81
C       5.45      11.91      16.97
C       5.21      13.17      17.40
C       6.58      13.47      21.44
