22

C       9.38      12.21       5.02
C       7.65      10.90       3.23
C       8.23      12.90       4.56
C       8.79      10.21       3.70
C       7.40      12.21       3.67
C       9.62      10.90       4.59
H       6.51      12.71       3.28
H      10.51      10.40       4.97
C       7.85      14.30       4.95
C       9.18       8.81       3.31
H       8.60      15.03       4.63
H       7.76      14.41       6.04
H       6.89      14.57       4.49
H       9.24       8.69       2.22
H       8.44       8.07       3.65
H      10.15       8.56       3.75
C      10.39      12.81       5.95
C       6.66      10.30       2.28
O      11.31      12.02       6.37
O      10.28      14.04       6.25
O       5.79      11.09       1.78
O       6.76       9.05       2.04
