60

O       2.18       3.52       0.21
O       3.80       1.94       0.03
O      13.52      13.91       0.39
O      12.02      15.60       0.32
O       2.05      13.78       0.23
O       3.74      15.32       0.31
H      10.35       8.70      -0.67
H       5.49       8.63      -0.41
C      12.54       3.23      -0.43
C       3.39       3.13       0.08
C      12.34      14.37       0.37
C       3.26      14.14       0.21
C       8.63       7.44      -0.99
C       7.23       7.44      -0.75
C       6.57       8.66      -0.54
C       7.21       9.89      -0.44
C       8.62       9.89      -0.43
C       9.27       8.68      -0.71
C       4.96      12.53       1.15
C       4.26      13.02       0.04
C       4.45      12.41      -1.20
C       5.44      11.43      -1.37
C       6.28      11.05      -0.30
C       6.00      11.60       0.97
C      10.32      13.31      -0.75
C      11.25      13.30       0.30
C      11.25      12.18       1.16
C      10.35      11.11       0.97
C       9.48      11.08      -0.15
C       9.53      12.18      -1.02
C       4.28       5.11      -1.20
C       4.40       4.24      -0.10
C       5.47       4.43       0.79
C       6.38       5.48       0.60
C       6.31       6.29      -0.55
C       5.25       6.08      -1.45
C      10.13       3.97      -0.81
C      11.51       4.25      -0.84
C      11.86       5.51      -1.43
C      10.90       6.48      -1.66
C       9.51       6.29      -1.32
C       9.18       4.91      -1.26
Br       6.96      10.97       2.47
Br       4.32      12.96       2.87
Br       5.59      10.56      -3.05
Br       3.26      12.83      -2.63
Br       8.63      12.05      -2.68
Br      10.12      14.83      -1.87
Br      10.34       9.66       2.19
Br      12.44      12.10       2.64
Br       5.26       7.00      -3.10
Br       2.79       4.96      -2.37
Br       7.73       5.82       1.88
Br       5.65       3.28       2.28
Br       7.67       4.22      -2.16
Br       9.38       2.37      -0.12
Br      11.33       7.95      -2.82
Br      13.63       5.91      -2.02
O      13.74       3.64      -0.28
O      12.18       2.02      -0.28
