9

O       4.75      14.91       3.30
O       6.05      14.67       1.45
O       2.64      15.58       2.01
O       4.26      17.89       1.36
C       4.98      14.95       2.02
C       4.36      16.87       0.71
C       3.81      15.49       1.20
H       4.91      16.82      -0.25
H       3.67      14.83       0.33
