30

O       5.14      11.34       8.67
H       5.07      22.30       8.57
H       5.14      19.81       8.57
H       0.83      19.70       8.60
H       6.08      16.12       8.66
H       1.77      16.02       8.69
H       1.84      13.53       8.69
O       0.49      22.28       8.58
O       6.41      13.55       8.68
H       0.67      23.26       8.57
H       6.23      12.56       8.69
C       3.98      11.93       8.64
C       2.92      23.89       8.62
C       2.92      22.42       8.59
C       4.14      21.72       8.58
C       4.19      20.34       8.58
C       2.98      19.62       8.59
C       1.75      20.28       8.59
C       1.70      21.68       8.58
C       5.15      15.54       8.66
C       3.92      16.20       8.66
C       2.71      15.48       8.68
C       2.76      14.10       8.68
C       3.99      13.40       8.67
C       5.20      14.14       8.67
N       2.89      18.21       8.61
N       4.01      17.62       8.64
O       2.87      11.32       8.57
O       1.77      24.48       8.59
O       4.04      24.50       8.68
