22

H      16.22      13.74       5.32
H      17.61      15.39       3.63
O      18.91      18.14       1.27
O      18.15      20.18       1.98
O      11.20      18.61       1.54
O      10.28      18.44       3.62
C      14.51      14.97       4.73
C      15.84      14.57       4.73
C      16.55      15.40       3.85
C      15.66      16.35       3.34
C      12.76      12.59       7.30
C      18.02      18.94       1.74
C      11.19      18.22       2.76
C      16.80      18.26       2.08
C      16.04      17.47       2.61
C      13.28      16.76       3.55
C      12.33      17.43       3.19
C      13.04      13.53       6.27
C      13.51      14.33       5.46
N      14.38      16.07       3.86
O      11.59      12.05       7.33
O      13.73      12.35       8.09
