27

H       3.94       2.88       2.97
H       3.94       1.38       3.87
H       3.93       2.57       5.89
H       3.86       4.07       4.98
H       6.16       3.97       2.29
H       6.02       5.21       4.25
H       7.66       1.06       4.14
H       6.12       0.36       4.65
H       7.71       2.48       5.99
H       7.68       3.23       2.84
H       7.57       4.55       4.77
C       5.85       4.30       6.83
C       4.46       2.34       3.77
C       4.43       3.13       5.09
C       6.63       3.43       3.13
C       6.64       1.31       4.46
C       5.91       2.08       3.34
C       5.85       3.48       5.54
C       6.57       4.28       4.42
C       6.67       2.18       5.76
C       5.98       1.29       2.03
C       6.18       1.45       6.93
N       5.76       0.91       7.87
O       6.97       4.47       7.41
O       4.73       4.75       7.23
O       4.88       1.13       1.41
O       7.12       0.90       1.64
