40

C       9.93      10.27      15.02
H       4.88      13.86      12.55
O      12.73       7.15      14.74
H       7.49      11.13      10.50
C      10.83       9.22      14.92
O      14.30       8.55      13.96
P       9.08      12.91      14.94
C      12.15       9.46      14.50
O       4.04      13.11      10.42
H       9.12      11.26      12.38
C      12.53      10.76      14.15
O       5.44      11.75       9.25
C      11.62      11.81      14.23
C      13.15       8.36      14.40
C       7.93      12.66      13.53
C       6.72      13.37      13.58
H      11.25      17.27      15.79
H      10.03      15.18      16.42
C       5.82      13.30      12.52
C      12.16      17.99      13.35
H      10.04      13.96      12.28
C      11.37      16.76      13.70
C       6.09      12.50      11.41
C      10.99      16.53      15.03
C       7.29      11.76      11.37
H      11.34      16.01      11.69
H       8.92      10.07      15.37
C      10.31      15.37      15.37
C       8.19      11.84      12.42
C       9.97      14.42      14.39
H      10.54       8.21      15.21
C       5.13      12.43      10.27
C      10.31      11.58      14.67
C      10.32      14.68      13.06
H      13.56      10.93      13.81
O      12.71      18.03      12.21
C      11.03      15.82      12.72
H      11.92      12.82      13.94
O      12.23      18.89      14.26
H       6.50      14.00      14.44
