18

O      14.30      18.40      26.14
O      13.27      16.36      26.02
C       7.76      20.40      30.53
C      11.08      17.47      27.62
C      10.02      20.50      29.30
C      12.25      18.11      27.20
C       8.85      19.87      29.73
C      10.83      19.62      28.53
C      10.27      18.35      28.39
H       9.91      15.96      27.70
H      11.19      22.01      29.21
O       6.81      19.58      30.80
O       7.84      21.62      30.90
O      10.32      21.79      29.59
O      10.79      16.18      27.33
C      13.35      17.58      26.39
S      12.35      19.77      27.73
S       8.75      18.21      29.19
