12

O      13.63       2.16       1.95
C      13.71       3.68       3.68
C      13.56       3.90       4.87
C      13.43       4.13       6.19
C      13.33       4.33       7.40
C      13.20       4.56       8.71
O      14.79       4.10       1.68
C      13.07       4.79       9.91
O      13.14       6.35      11.61
O      12.03       4.39      11.94
C      14.05       3.28       2.34
C      12.74       5.21      11.25
