14

C       4.79       1.13       8.04
Cl       3.77       2.48       8.05
C       6.20       1.26       8.04
C       5.10      -1.30       8.05
C       7.03       0.13       8.04
C       4.27      -0.16       8.04
C       6.81       2.54       8.05
C       6.51      -1.17       8.04
Cl       7.53      -2.52       8.05
C       4.49      -2.58       8.05
F       2.94      -0.35       8.05
F       8.36       0.31       8.04
N       3.95      -3.60       8.07
N       7.36       3.56       8.06
