28

O       1.04       0.95      23.85
H       1.22      12.33      20.38
O       2.89      12.92      16.94
O       1.04      13.58      18.07
H       2.71      10.30      16.86
H       2.71       4.22      25.06
H       1.22       2.19      21.54
F       2.71       7.94      17.97
F       1.23      10.19      21.86
F       1.23       4.33      20.05
F       2.70       6.58      23.95
C       1.97      12.74      17.80
C       1.96       1.78      24.12
C       1.97      11.45      18.54
C       1.55      11.42      19.88
C       1.59      10.22      20.56
C       1.97       9.00      19.95
C       2.35       9.09      18.59
C       2.39      10.28      17.89
C       1.97       7.79      20.65
C       1.97       6.73      21.26
C       1.96       5.51      21.96
C       2.34       5.43      23.32
C       2.38       4.24      24.02
C       1.96       3.07      23.38
C       1.55       3.09      22.04
C       1.58       4.30      21.36
O       2.89       1.60      24.98
