24

O      15.99       9.19       4.78
O      15.62       8.73       7.22
O      17.90       8.75       6.23
H      18.23       5.22       1.50
H      19.99       4.23       2.95
H      16.75       5.03       7.12
H      17.81       6.43       7.35
H      15.18       6.46       5.74
H      18.08       8.71       7.20
O      16.15       6.31       0.97
C      16.25       6.69       5.69
O      19.83       4.09       6.90
C      16.00       6.54       2.22
C      17.03       6.15       4.51
C      17.07       6.03       3.12
C      20.07       4.15       5.64
C      18.16       5.32       2.58
C      19.13       4.75       3.39
C      19.04       4.80       4.80
C      17.95       5.50       5.33
C      17.24       5.87       6.61
S      16.32       8.48       5.98
O      21.11       3.73       5.05
O      15.03       7.14       2.77
