26

O       6.05       1.37       9.40
O       8.31       1.36       9.51
O       5.97       9.34       1.35
O       8.23       9.50       1.53
H       9.36       4.80       6.18
H       4.99       6.11       4.85
C       7.24       2.85       8.00
C       7.08       7.95       2.90
H       5.11       2.91       7.86
H       5.03       4.64       6.12
C       8.29       7.43       3.39
F       9.64       3.05       7.93
F       4.68       7.85       3.10
C       8.41       3.43       7.49
C       8.40       4.42       6.51
C       5.91       7.42       3.48
C       5.94       6.45       4.46
C       8.34       6.45       4.36
C       6.03       3.34       7.47
C       6.00       4.32       6.49
C       7.19       4.89       5.98
C       7.16       5.93       4.93
C       7.20       1.78       9.05
C       7.09       9.01       1.85
H       9.21       7.83       2.95
H       9.32       6.09       4.68
