28

C      11.41      15.89       7.26
C      15.06      20.30      10.41
C      14.66      19.02      10.80
C      13.83      18.27       9.98
C      13.41      18.75       8.72
H      12.50      20.10       5.14
H      11.29      18.06       4.64
H      12.26      16.26       9.17
H      15.69      20.91      11.06
H      13.51      17.28      10.31
H      14.98      18.61      11.76
H      13.83      21.48       6.65
C      13.83      20.05       8.30
C      12.58      17.95       7.83
C      12.27      18.45       6.53
C      12.74      19.73       6.14
C      13.48      20.51       6.99
C      12.09      16.67       8.18
C      11.14      16.37       5.96
C      14.63      20.83       9.20
O      10.54      14.23       8.74
O      16.01      22.78       9.39
H      10.61      15.73       5.25
O      11.25      13.64       6.65
O      14.00      22.92       8.33
C      11.03      14.48       7.59
C      11.53      17.65       5.62
C      14.92      22.28       8.94
