16

H       0.42       6.05       0.41
H       0.28       7.79       0.66
H      -3.15       7.21      -2.77
N      -1.57       7.54      -5.19
N      -0.42       7.64      -5.86
H       1.90       7.36      -2.46
N       0.62       7.58      -5.03
H      -1.98       7.02      -0.59
C       0.15       7.44      -3.76
C      -1.27       7.41      -3.86
C      -2.06       7.26      -2.71
C      -1.40       7.14      -1.50
C       0.03       7.17      -1.39
C       0.81       7.32      -2.52
C       0.66       7.03      -0.03
H       1.75       7.12      -0.08
