34

O       2.42       5.30       6.26
O       3.42      11.15      13.14
H       0.55       6.95      10.48
H       5.32       9.43       8.98
O       1.15       4.83       8.94
O       4.87      11.37      10.37
O       5.57       7.81       6.87
O       0.22       8.47      12.46
H       0.52       6.23       7.61
H       5.33      10.16      11.94
H       7.09       8.93       7.81
H       5.97       9.86       6.75
H       7.17       8.73       6.03
H       1.23       8.66      14.30
H       0.83       6.98      13.79
H      -0.47       8.10      14.34
C       3.56       5.80       6.56
C       2.31      10.60      12.84
C       3.54       6.83       7.64
C       2.37       9.51      11.81
C       1.35       7.68      10.57
C       4.54       8.68       8.87
C       1.32       8.55      11.63
C       4.59       7.79       7.80
C       3.45       9.52      10.93
C       2.47       6.81       8.52
C       3.49       8.64       9.81
C       2.42       7.70       9.63
C       1.30       5.87       8.31
C       4.63      10.44      11.13
C       6.50       8.90       6.88
C       0.48       8.02      13.80
O       4.66       5.46       6.05
O       1.18      10.93      13.31
