13

O       0.67       0.83      28.01
C       2.24      -1.54      24.87
O       2.74       1.33      28.70
C       4.37      -1.00      25.60
H       4.55       0.31      27.30
C       3.87      -0.20      26.62
N       3.58      -1.67      24.74
H       0.58      -0.64      25.91
H       1.62      -2.08      24.16
C       1.93       0.75      27.90
H       5.45      -1.11      25.43
C       2.49      -0.07      26.77
C       1.67      -0.74      25.86
