38

H       1.24      -3.44       8.62
H       0.98      -5.00      12.64
H       3.09      -2.06       9.61
H       3.51      -5.41      12.28
H       5.73      -5.95      13.26
N      -0.35      -4.21       9.80
H       8.19      -5.73      13.15
H      10.17      -4.85      11.94
H       9.75      -1.48       9.28
H       7.53      -0.44       8.92
H       5.07      -0.69       9.00
N      -0.41      -4.72      11.07
N      13.16      -3.50       8.51
N      13.40      -4.47       9.46
H      11.65      -2.07       8.22
H      12.44      -5.11      11.23
C      11.47      -3.44      10.01
C       0.94      -3.84       9.58
C       0.82      -4.66      11.62
C       1.72      -4.09      10.71
C       3.72      -2.71      10.22
C       3.14      -3.79      10.90
C       3.95      -4.57      11.74
C       5.33      -4.35      11.84
C       5.92      -3.30      11.07
C       5.09      -2.44      10.29
C       6.19      -5.19      12.63
C       7.55      -5.06      12.57
C       8.17      -4.09      11.72
C       7.34      -3.17      11.02
C       7.93      -2.17      10.18
C       7.07      -1.24       9.51
C       5.71      -1.37       9.55
C       9.55      -4.09      11.46
C      10.12      -3.20      10.53
C      12.03      -2.87       8.84
C       9.31      -2.20       9.97
C      12.39      -4.44      10.37
