32

H       7.60       5.89       2.55
C       5.67       4.92       2.74
C       5.14       5.22      -7.03
C       6.10       5.76       6.99
C       5.30       5.11      -5.54
C       6.08       4.08      -4.99
C       6.16       3.94      -3.60
C       5.48       4.80      -2.73
C       4.72       5.82      -3.30
C       4.62       6.00      -4.68
C       5.60       4.66       1.29
C       5.53       4.62      -1.27
C       6.81       5.59       3.23
C       6.92       5.86       4.58
C       5.94       5.49       5.52
C       4.82       4.83       5.01
C       4.67       4.55       3.65
N       4.36       4.45      -0.62
N       4.40       4.49       0.70
N       6.78       4.52       0.64
N       6.75       4.53      -0.68
Cl       6.89       2.93      -5.98
Cl       3.72       7.32      -5.30
O       6.18       5.47      -7.71
O       3.97       5.01      -7.47
O       7.24       5.49       7.47
O       5.09       6.20       7.61
F       6.88       2.92      -3.09
F       4.09       6.69      -2.48
F       8.02       6.54       5.01
F       3.84       4.41       5.84
F       3.58       3.86       3.27
