20

C      12.87      15.46       3.05
C      14.94      14.35       4.80
C      14.00      16.18       3.45
C      13.80      13.61       4.40
C      14.98      15.65       4.28
C      12.81      14.15       3.56
C      14.69      17.52       3.32
C      15.81      16.92       4.27
H      15.02      17.78       2.31
H      14.13      18.37       3.73
H      15.91      17.42       5.24
H      16.81      16.83       3.82
C      16.00      13.82       5.69
C      11.83      16.05       2.16
O      15.89      12.62       6.09
O      16.95      14.63       5.98
O      10.83      15.31       1.85
O      12.04      17.25       1.78
F      13.60      12.35       4.81
F      11.78      13.32       3.28
