46

C       6.02       6.73      15.22
C      13.83       9.56      16.32
C      12.93       9.43      17.39
H      13.20      10.31      19.45
C       2.76       8.89      17.94
C       2.67       9.76      15.92
H       5.62       8.81      18.48
C       9.31       7.65      14.58
C       9.30       6.53      13.73
C       8.73       6.61      12.46
H      11.98       7.65      19.28
C       8.18       8.93      12.85
C       8.17       7.81      12.02
H      10.26       5.91      18.86
H       4.24       7.73      14.54
C       8.74       8.85      14.12
N      14.70      10.68      18.00
H      11.20       9.29      15.37
N       8.98       5.46      16.64
H       6.12       6.10      14.33
H      13.78       9.12      15.33
N       7.80       5.45      16.22
H       3.01       8.36      18.86
N      14.89      10.30      16.70
N       1.55       9.45      17.77
N       1.47      10.00      16.52
H       2.85      10.13      14.91
H       9.74       5.59      14.07
H       8.74       5.73      11.81
H       7.73       7.87      11.02
H       7.74       9.87      12.51
H       8.74       9.72      14.78
C      13.53      10.15      18.43
C       3.52       9.05      16.78
C      11.72       8.59      17.34
C      10.97       8.57      16.16
H       7.53       7.25      18.24
C       9.97       7.62      15.91
C       9.73       6.64      16.91
C      10.45       6.68      18.12
C      11.41       7.66      18.35
C       6.82       7.37      17.42
C       5.75       8.24      17.55
C       6.94       6.58      16.27
C       4.79       8.37      16.53
C       4.98       7.65      15.33
