30

H       1.31      11.09      14.79
H      -1.91       7.91       8.16
H       2.80       7.63      11.83
H      -3.40      11.37      11.13
C      -0.70      12.71      15.34
C       0.10       6.29       7.61
C      -1.61      11.67      13.19
C       1.01       7.32       9.76
C      -0.62      11.78      14.16
C       0.02       7.21       8.79
C       0.53      10.98      14.05
C      -1.13       8.02       8.90
C       0.65      10.05      13.01
C      -1.25       8.94       9.94
C      -0.36       9.96      12.01
C      -0.24       9.04      10.94
C      -1.51      10.80      12.09
C       0.91       8.19      10.86
C       1.77       9.16      12.89
C      -2.37       9.83      10.06
C       1.92       8.27      11.87
C      -2.52      10.73      11.08
O      -1.85      13.05      15.76
O       1.25       5.94       7.19
O       0.42      13.04      15.84
O      -1.02       5.95       7.11
F      -2.72      12.46      13.25
F       2.12       6.54       9.70
F       2.73       9.25      13.85
F      -3.33       9.75       9.10
