26

O      16.41      12.00       0.65
O      15.16      10.69      -0.72
H      15.16      13.79      -1.76
H      15.74      14.39      -0.20
H      14.13      16.10      -0.29
H      13.53      15.45      -1.82
O      11.80      16.91       0.53
O      10.37      15.64      -0.69
H      14.80      13.49       1.95
H      13.48      12.31       1.92
H      13.29      12.06      -1.81
H      12.64      11.43      -0.31
H      11.03      13.12      -0.28
H      11.66      13.73      -1.81
H      13.23      15.24       1.90
H      11.93      14.04       1.92
C      15.36      11.74      -0.03
C      11.47      15.84      -0.08
C      14.84      14.07      -0.74
C      13.77      15.18      -0.78
C      12.49      14.71      -0.07
C      12.85      14.34       1.39
C      13.89      13.20       1.41
C      14.27      12.81      -0.04
C      13.02      12.34      -0.79
C      11.95      13.46      -0.78
