28

C       2.12       0.65      16.82
S      -1.73       1.82      21.25
S      -0.72       2.09      23.01
H       0.05       1.44      25.62
O      -5.08      -0.66      27.31
H      -4.54      -0.35      24.97
O      -3.45      -0.07      28.72
H      -3.28       0.52      23.00
O      -1.03       0.57      27.78
H      -2.11       0.47      18.81
O       3.31       1.10      16.92
H       2.74       1.37      19.26
O       1.71       0.17      15.69
H       1.26       1.79      21.20
O      -0.77      -0.12      16.72
C      -1.56       1.08      24.20
C      -0.96       1.04      25.46
C      -1.65       0.55      26.58
C      -3.00       0.08      26.40
C      -3.53       0.04      25.09
C      -2.83       0.53      24.00
C      -3.89      -0.26      27.51
C      -0.53       1.20      20.11
C      -1.04       0.66      18.93
C      -0.21       0.38      17.83
C       1.19       0.69      17.95
C       1.68       1.15      19.19
C       0.85       1.40      20.27
