25

H       9.31       4.80       6.56
H       5.24       3.50       5.79
H       4.61       5.89       5.66
H       9.31       2.87       7.74
H      10.05       0.49       7.84
H       7.13      -0.57       4.89
H       6.39       1.80       4.75
C       7.79       6.28       6.33
C       8.25       4.97       6.38
C       7.34       3.91       6.18
C       6.00       4.26       5.92
C       5.64       5.60       5.87
C       8.73       7.45       6.55
C       7.79       2.51       6.24
C       8.83       2.12       7.10
C       9.25       0.80       7.17
C       8.63      -0.18       6.38
C       7.60       0.20       5.51
C       7.18       1.52       5.44
C       9.04      -1.63       6.49
N       6.51       6.61       6.07
O       8.18       8.59       6.58
O       9.96       7.21       6.66
O      10.04      -1.90       7.21
O       8.31      -2.47       5.87
