19

H       1.96       1.48       3.84
H       4.40       1.05       3.95
H       5.25      -1.05       4.98
H       3.61      -2.74       5.82
H      -0.70      -0.82       4.48
H      -0.21       0.83       4.05
O       1.54      -3.78       6.17
O      -0.25      -2.46       6.07
O      -1.82       0.40       6.33
O       0.24       1.13       6.90
C       1.88      -1.57       5.36
C       1.40      -0.36       4.80
C       2.33       0.55       4.28
C       3.70       0.31       4.33
C       4.18      -0.87       4.90
C       3.27      -1.80       5.40
C       0.99      -2.64       5.90
C      -0.06       0.01       4.77
C      -0.56       0.55       6.12
