16

C       3.80       2.92       5.73
C       1.52       4.06       6.12
S       2.51       3.64       3.58
S       6.16       1.78       4.50
O       0.58       4.64       5.47
O       6.95       1.30       0.68
O       1.59       3.91       7.39
O       8.14       0.87       2.59
C       4.86       2.46       2.35
C       2.62       3.53       5.31
C       6.04       1.86       2.76
C       4.04       2.86       3.42
C       4.63       2.54       4.66
F       4.13       2.72       7.01
F       4.51       2.66       1.07
C       7.12       1.31       1.94
