14

N       4.29       1.52       7.61
H       2.99       4.00       6.92
N       6.31       1.06       6.82
N       6.31       5.37       4.33
H       7.61       2.89       5.01
C       4.65       2.58       6.82
N       4.29       5.83       5.12
N       5.30       0.65       7.58
C       5.95       2.28       6.29
C       5.95       4.30       5.12
N       5.30       6.24       4.35
C       4.65       4.61       5.65
C       3.97       3.76       6.52
C       6.63       3.12       5.41
