36

C      43.06      17.38      19.04
C      43.67      18.06      16.40
C      43.07      16.39      18.06
H      41.25      24.44      24.97
C      43.37      16.73      16.73
H      45.48      24.96      24.46
I      46.04      18.53      20.66
H      41.25      22.66      23.22
I      40.69      20.66      18.54
H      45.49      23.22      22.67
O      43.33      14.45      16.07
H      45.23      20.88      22.42
H      41.51      22.42      20.89
O      43.41      16.06      14.46
H      43.92      20.07      17.13
H      42.81      17.13      20.07
O      44.49      26.30      26.27
H      43.90      18.30      15.36
O      42.21      26.25      26.30
H      42.83      15.36      18.31
C      43.37      18.71      18.71
C      43.35      25.86      25.87
C      44.42      20.85      21.70
C      42.17      24.16      24.46
C      44.56      24.45      24.18
C      42.32      21.69      20.85
C      42.17      23.18      23.48
C      44.56      23.47      23.19
C      43.37      22.82      22.83
C      43.36      24.81      24.82
C      44.41      19.86      20.71
C      42.33      20.70      19.87
C      43.37      15.67      15.68
C      43.37      19.76      19.76
C      43.37      21.78      21.78
C      43.68      19.04      17.38
