17

C      -0.67       7.45       8.18
C      -0.69      10.26       8.11
C       0.55       8.17       8.10
C      -1.90       9.55       8.18
C       0.53       9.58       8.08
C      -1.88       8.17       8.21
H      -2.84      10.09       8.21
H       1.46      10.12       8.04
H      -2.82       7.61       8.25
O       0.40      12.36       8.00
O       0.44       5.37       8.16
O      -1.82       5.38       8.31
H       1.54       6.57       8.05
C      -0.71      11.75       8.08
O      -1.86      12.31       8.14
C      -0.70       5.98       8.22
O       1.75       7.55       8.04
