13

C      11.46       6.80      22.54
C      11.63       5.90      23.62
C      13.53       4.81      25.02
H       9.63       7.60      21.48
S      13.00       7.31      22.00
S      10.11       5.37      24.18
H      13.97       5.43      25.82
H      12.73       4.19      25.43
H      14.34       4.18      24.63
N      13.81       6.39      23.13
N       9.29       6.28      23.04
C      13.00       5.69      23.93
C      10.09       6.98      22.25
