24

C      -5.04      -0.99      12.04
C      -5.50       1.11      10.90
C      -5.32      -0.26      10.87
C      -6.15       4.08      11.11
C      -5.47      -3.29      10.96
H      -4.52      -0.77      14.13
C      -6.35       3.90      13.30
H      -5.81       1.63       9.99
H      -5.49      -0.80       9.93
C      -5.39      -3.28      13.17
H      -4.82       1.66      14.18
H      -5.97       3.96      10.05
H      -5.45      -3.09       9.90
H      -6.37       3.60      14.34
H      -5.31      -3.05      14.23
N      -5.82      -4.51      11.41
N      -6.76       5.20      11.56
N      -6.88       5.08      12.93
N      -5.77      -4.50      12.76
C      -5.19      -2.44      12.05
C      -5.87       3.21      12.17
C      -4.80      -0.25      13.21
C      -4.98       1.13      13.24
C      -5.40       1.83      12.10
