16

C       3.79       2.92       5.75
C       1.54       4.10       6.16
S       2.54       3.71       3.62
C       2.63       3.56       5.35
C       4.05       2.91       3.44
C       4.87       2.52       2.36
C       4.62       2.54       4.67
S       6.13       1.73       4.50
O       0.60       4.67       5.51
O       1.62       3.95       7.43
C       6.03       1.88       2.77
O       7.02       1.44       0.69
O       8.07       0.78       2.61
F       4.12       2.67       7.03
F       4.54       2.77       1.09
C       7.12       1.33       1.95
