28

C       1.91       1.41       7.67
C       5.66       6.13       3.51
H       1.08       3.92       9.60
H       2.66       7.25       2.81
H       2.28       0.81       6.85
H       6.50       5.61       3.98
H       4.07       2.30       5.81
C       1.92       2.80       7.82
H       2.10       6.79       5.98
H       3.45       5.51       8.12
C       3.28       5.08       7.13
C       4.31       6.14       3.89
H       2.72       3.60       3.66
C       2.87       4.00       4.67
H       5.49       4.68       6.35
C       3.63       3.30       5.84
H       0.67       4.39       5.45
C       2.53       5.78       5.94
C       4.41       4.62       6.14
C       2.49       3.74       6.85
C       3.67       5.34       4.95
N       0.95       1.81       9.62
N       4.64       7.41       2.06
N       1.36       0.81       8.77
N       5.85       6.88       2.41
C       1.74       4.46       5.65
C       1.29       2.99       9.07
C       3.71       6.97       2.93
