36

H       3.43      10.93       9.79
H      -5.27       7.35      11.46
H      -5.38      11.52      10.45
H       3.56       6.65      10.09
H      -0.85      10.75      11.60
H      -0.80       7.71      11.33
H       0.45       6.35      12.09
H      -1.84      12.27      11.31
H      -3.37       6.62      12.37
H       1.61      11.92      10.52
C       5.01       8.84       9.27
C      -6.87       9.25      10.35
C       3.62       8.79       9.82
C      -5.47       9.41      10.86
C       2.94       9.99      10.07
C      -4.76       8.31      11.37
C       1.68      10.01      10.66
C      -3.42       8.43      11.73
C       1.02       8.80      11.01
C      -2.71       9.64      11.53
C       1.76       7.59      10.82
C      -3.48      10.78      11.14
C       3.03       7.59      10.22
C      -4.83      10.65      10.80
C      -0.39       8.72      11.37
C      -1.26       9.74      11.57
C       1.26       6.29      11.32
C      -2.91      12.15      11.03
O       5.62       7.73       9.09
O      -7.47      10.32      10.01
O       5.51      10.00       9.09
O      -7.33       8.06      10.26
O       1.70       5.20      10.99
O      -3.56      13.13      10.68
O      -2.74       7.35      12.25
O       1.05      11.21      10.87
