39

H       8.78       8.72       8.06
H       9.46      11.96       5.31
H      10.91      12.23       9.35
H       9.21       7.80      12.75
H       8.55       8.23      10.22
H       6.30       9.42       2.78
H       7.73      11.19       4.17
H      12.90      16.17       7.62
H      12.15      13.90       8.74
C       9.90      10.40       8.85
C       9.19       9.71       7.85
C       9.00      10.28       6.58
C       9.56      11.54       6.31
C      10.25      12.26       7.30
C      10.40      11.68       8.57
C      10.05       9.81      10.18
C      10.67       9.38      12.55
C       9.68       8.54      12.10
C       9.34       8.77      10.75
C      11.28       9.42      13.89
C       8.22       9.58       5.56
C       6.86       7.95       4.27
C       6.86       9.21       3.69
C       7.64      10.13       4.42
C       6.17       6.75       3.78
C      10.83      13.57       7.02
C      11.55      15.72       5.99
C      12.15      15.49       7.21
C      11.74      14.28       7.80
C      11.85      16.80       5.04
S      11.19      10.46      11.31
S       7.82       7.91       5.70
S      10.46      14.45       5.59
O      10.76       8.69      14.81
O      12.33      10.10      14.08
O       5.21       6.89       2.96
O       6.52       5.59       4.22
O      12.77      17.63       5.32
O      11.21      16.84       3.91
