65

H       5.93       7.16      10.31
H       2.46       9.12       3.52
H       6.45       7.21      -9.92
H       6.65       7.81      -7.50
H       2.45       8.89      -3.37
H       2.52       9.20      -0.91
H       2.53       9.26       1.05
H       8.37       5.93       3.59
H       8.42       5.83      -0.80
H       8.25       5.53      -3.25
H       3.39       5.14      -6.62
H       8.51       6.05       1.13
H       2.51       4.06      -8.35
C       4.45       5.11      11.07
C       4.78       5.58     -11.12
C       4.15       7.85       5.13
C       6.34       6.61       5.14
C       4.12       5.50       7.29
C       3.94       4.99       8.59
C       5.41       6.72       9.46
C       5.55       7.25       8.18
C       4.92       6.64       7.09
C       5.41       7.49       2.97
C       4.30       8.04       3.67
C       3.30       8.69       2.96
C       6.45       6.86       3.69
C       4.60       5.60       9.66
C       4.82       5.86      -9.65
C       4.38       8.12      -0.63
C       6.55       6.90      -0.60
C       5.44       7.44      -1.31
C       3.33       8.66      -1.40
C       3.27       8.49      -2.79
C       4.26       7.78      -3.45
C       5.36       7.26      -2.73
C       6.38       6.55      -3.41
C       6.29       6.28      -4.86
C       4.13       7.55      -4.91
C       5.90       7.10      -7.84
C       5.79       6.76      -9.18
C       3.94       5.28      -8.71
C       4.06       5.60      -7.35
C       5.03       6.50      -6.93
C       4.38       8.18       0.83
C       5.46       7.56       1.54
C       6.58       6.98       0.86
C       3.35       8.76       1.56
C       7.57       6.39       3.01
C       7.56       6.24      -1.32
C       7.48       6.07      -2.70
C       7.63       6.46       1.62
N       5.16       7.09       5.75
N       5.15       6.79      -5.52
Cl       3.40       4.73       5.94
Cl       6.52       8.65       7.94
Cl       2.98       3.59       8.85
O       5.47       4.60      11.63
O       3.33       5.31      11.64
O       5.87       5.80     -11.75
O       3.69       5.20     -11.64
O       3.20       8.28       5.77
O       3.19       7.99      -5.57
O       7.17       5.98       5.79
O       7.13       5.62      -5.47
O       2.98       4.39      -9.13
