9

C       4.16       0.32       9.08
H       6.60      -0.80       6.37
N       3.55      -0.85       9.15
N       4.27      -1.73       8.36
N       5.26       0.28       8.29
H       3.80       1.22       9.59
H       5.91      -2.34       6.49
C       5.29      -1.01       7.85
N       6.24      -1.52       7.01
