20

H       9.96       9.08       7.46
H       5.85       9.11      10.91
H       4.94       9.05       9.38
H       4.91      11.56       9.30
H       5.84      11.62      10.82
C       8.18       7.39       8.65
C       8.02      13.25       8.48
C       8.11       8.87       8.58
C       8.05      11.77       8.46
C       7.07       9.61       9.12
C       9.08      10.99       7.88
C       7.05      11.01       9.07
C       9.13       9.61       7.94
C       5.77       9.54       9.91
C       5.75      11.12       9.85
O       9.31       6.84       8.44
O       9.11      13.88       8.29
O       6.88      13.79       8.70
O       7.10       6.78       8.94
F      10.09      11.61       7.20
