14

H      -0.19      12.76       4.75
H      -1.94      11.66       3.40
C      -1.87       9.43       1.98
H       0.11       9.41       2.91
O       1.76      12.97       6.23
O       3.13      11.15       6.01
C      -0.03      11.72       4.46
C       1.05      11.10       4.97
C      -0.99      11.13       3.55
H       1.27      10.05       4.75
C      -0.81       9.99       2.85
O      -2.86      10.18       1.71
O      -1.69       8.23       1.59
C       2.04      11.79       5.80
