12

C       4.09       1.91       1.51
C       4.27       9.08       7.35
O       3.12       9.53       7.65
O       5.40       9.44       7.81
O       2.94       1.48       1.16
O       5.23       1.49       1.14
C       4.28       8.01       6.38
C       4.24       7.07       5.59
C       4.20       6.03       4.75
C       4.16       5.05       3.99
C       4.13       3.99       3.17
C       4.10       3.02       2.43
