30

C       6.89       0.94       3.59
C       8.55       6.40      11.11
N       7.43       1.78       1.64
N       9.29       5.42      12.92
C       6.74       2.34       3.71
H       6.63       1.29       6.18
H       7.49       6.18       8.63
N       7.31       0.63       2.35
H       6.91       1.24       8.65
H       6.72       0.15       4.32
H       6.81       6.27       6.20
H       8.37       7.23      10.43
N       9.18       6.62      12.27
F       7.62       2.24      10.88
C       8.23       5.04      10.97
F       6.48       5.21       3.89
C       7.63       4.39       9.81
C       6.59       3.06       4.96
C       6.77       5.18       6.22
C       7.02       2.32       8.62
C       6.59       4.48       5.05
C       7.40       2.99       9.75
C       6.63       2.38       6.18
C       7.34       5.10       8.64
C       6.82       3.04       7.41
C       6.95       4.47       7.44
H       7.10       3.83       2.04
H       8.71       3.44      12.49
C       7.08       2.82       2.42
C       8.73       4.47      12.16
