15

N      13.11      13.12      11.96
O      16.19      16.68      12.15
C      15.74      11.70       9.71
H      13.23      14.72      13.27
H      13.28      11.48      10.71
C      15.66      15.73      12.81
C      15.03      14.59      12.07
C      13.75      14.17      12.48
C      13.78      12.38      11.07
C      15.07      12.71      10.60
C      15.68      13.87      11.06
O      15.58      15.63      14.08
O      15.76      10.53      10.20
O      16.19      12.07       8.58
H      16.67      14.17      10.71
