53

O       5.94       0.31       6.38
O       5.31      -1.58       7.47
O      10.71      -5.18      14.99
O      12.21      -3.96      16.19
O       8.73       5.67      14.00
O      10.90       5.87      14.62
Si      11.13       0.17      10.77
O      16.61       0.46       6.53
O      16.26      -1.77       6.72
H       8.45       0.50       6.55
H      10.52       0.71       7.93
H       8.46      -1.12      11.25
H       6.44      -1.41       9.83
H      12.24      -1.58      15.38
H      12.04       0.20      13.64
H      10.46      -2.73      10.88
H      10.59      -4.46      12.66
H      12.43       4.30      13.40
H      12.95       2.27      12.09
H       8.75       1.79      11.20
H       8.26       3.84      12.51
H      15.08       1.81       7.99
H      13.14       2.16       9.53
H      12.49      -2.11       9.61
H      14.42      -2.42       8.08
C       6.10      -0.62       7.26
C       7.33      -0.48       8.10
C       8.48       0.12       7.57
C       9.62       0.24       8.36
C       9.64      -0.19       9.69
C       8.47      -0.78      10.21
C       7.34      -0.94       9.42
C      11.45      -4.17      15.18
C      11.42      -3.11      14.12
C      11.85      -1.81      14.38
C      11.75      -0.83      13.40
C      11.25      -1.13      12.12
C      10.85      -2.46      11.86
C      10.92      -3.44      12.85
C       9.99       5.34      13.95
C      10.31       4.18      13.05
C      11.63       3.75      12.90
C      11.91       2.60      12.17
C      10.88       1.86      11.56
C       9.56       2.34      11.67
C       9.28       3.48      12.40
C      16.00      -0.57       7.00
C      14.84      -0.32       7.93
C      14.49       0.96       8.35
C      13.41       1.15       9.21
C      12.66       0.05       9.68
C      13.04      -1.24       9.25
C      14.11      -1.43       8.39
