16

O       8.62      13.56      14.60
O       6.34      13.44      14.54
C       7.54      20.24      10.12
Br       4.55      15.47      13.04
C       6.37      15.89      12.90
C       7.44      15.19      13.44
C       8.63      18.32      11.47
C       8.20      17.18      12.19
C       6.80      17.03      12.18
C       7.56      19.01      10.93
Br      10.45      18.75      11.34
O       6.38      20.64       9.73
O       8.66      20.79       9.87
C       7.46      13.97      14.26
S       8.98      15.93      13.08
S       6.02      18.27      11.29
