16

C      -0.16      12.71      16.22
C       2.21      13.09      17.65
H      -1.07      12.55      15.65
H       3.13      13.25      18.23
C      -0.17      13.49      17.37
C       2.22      12.31      16.50
H      -1.08      13.98      17.72
H       3.13      11.83      16.15
O      -0.11      14.88      19.79
O       2.16      10.92      14.08
C       1.03      11.27      14.55
C       1.02      14.54      19.32
O      -0.11      10.95      14.07
C       1.02      13.69      18.09
C       1.03      12.12      15.78
O       2.16      14.85      19.81
