13

O       7.90       5.71       2.43
O       4.57       6.06      -2.31
O       5.69       5.18       2.54
O       6.32       4.59      -2.36
H       4.25       5.28       1.31
H       3.48       5.42      -0.29
C       6.78       5.43       1.89
C       5.51       5.34      -0.27
C       7.95       5.52      -0.27
C       6.72       5.39       0.42
C       5.48       5.34      -1.79
N       4.30       5.30       0.30
N       8.99       5.64      -0.80
