29

C      14.15       2.52       6.07
C      13.04       3.13       6.68
C      13.01       2.51       3.94
C      13.04       2.15       2.50
H      11.04       3.87       6.36
H      11.00       3.28       3.94
H      15.20       4.10       7.92
H      15.03       2.27       6.67
H      15.01       1.77       4.23
H      11.06       3.17       8.61
H      11.25       4.19      10.86
C      15.83       5.16      10.25
O      12.14       5.68      12.46
O      14.40       5.74      12.53
O      11.91       2.07       1.86
O      14.17       1.89       1.99
H      16.52       5.07       9.40
H      15.77       6.21      10.56
H      16.24       4.61      11.11
C      13.32       4.69      10.68
C      14.48       4.63       9.86
C      14.34       4.08       8.58
C      13.12       3.58       8.09
C      13.29       5.41      11.98
C      12.01       3.59       8.94
C      12.11       4.15      10.21
C      11.90       3.38       5.90
C      11.88       3.07       4.55
C      14.14       2.23       4.71
