24

H       8.59      15.22       9.91
H       6.18      16.89      13.84
H       6.31      16.91       9.84
H       8.44      15.20      13.91
H       9.70      16.84      11.96
H       5.05      15.27      11.79
C       7.39      10.61      11.87
C       7.41      21.50      11.90
O       6.29      10.03      12.15
O       8.51      22.08      12.19
O       8.50      10.04      11.58
O       6.31      22.07      11.60
C       6.78      16.52      10.74
C       7.97      15.60      13.00
C       8.05      15.61      10.78
C       6.71      16.51      12.96
C       7.38      12.05      11.86
C       7.41      20.06      11.90
C       6.09      15.63      11.83
C       8.67      16.48      11.92
C       7.35      14.68      11.86
C       7.41      17.43      11.88
C       7.36      13.27      11.86
C       7.41      18.84      11.89
