16

C      10.97      12.07       9.28
C      13.90       9.41      13.48
O      13.52       8.26      13.93
O      14.90      10.08      13.90
H       9.95      10.87      11.47
H      11.19       9.58      13.22
C      11.03      10.77      11.42
C      11.73      10.06      12.40
H      13.65      11.68       9.42
C      13.82      10.63      11.31
C      13.12      11.24      10.27
C      11.72      11.34      10.34
C      13.13      10.02      12.36
H      14.91      10.61      11.30
O      11.40      11.93       8.07
O       9.96      12.76       9.63
