24

H       9.65      -2.57      12.12
O      15.24      -4.22      10.02
O      13.77      -3.14       8.66
O      10.42      -0.95      14.24
O      11.78       0.84      14.41
O      10.58      -3.68       9.92
H      10.06      -1.63      10.02
H       9.93      -2.47       8.44
H      11.55      -2.02       9.07
C      11.83      -2.21      12.42
C      11.49      -0.33      13.95
C      12.38      -1.06      13.00
C      13.70      -0.74      12.59
C      14.39      -1.54      11.63
C      13.75      -2.60      10.95
C      12.46      -2.90      11.39
C      11.27      -3.80      11.12
C      10.59      -3.07      12.37
C      14.30      -3.36       9.79
C      10.54      -2.36       9.34
I      14.68       0.94      13.39
I      16.43      -1.24      11.20
I      11.73      -5.93      11.27
I      10.10      -4.20      14.15
