23

O      -3.70       8.11       5.38
O      -4.64       8.33       7.43
O      -4.47       4.51      10.48
O      -3.91       2.45       9.70
O      -3.17       3.24       4.73
C      -4.09       7.64       6.51
C      -3.89       6.19       6.73
H      -4.35       6.30       8.84
C      -4.07       5.65       8.01
H      -3.41       2.38       7.34
C      -3.88       4.29       8.21
H      -3.46       5.78       4.66
C      -3.54       3.45       7.14
H      -4.21       1.60       5.48
C      -3.40       3.98       5.85
H      -2.45       1.36       5.26
C      -3.54       5.36       5.66
H      -3.79       0.21       3.47
C      -4.10       3.70       9.57
H      -4.54       1.76       3.01
C      -3.36       1.81       4.82
H      -2.79       1.50       2.75
C      -3.63       1.29       3.42
