36

H       4.60       8.96      13.27
H       8.90       8.63      13.44
H       4.19       8.11      22.62
H       8.45       8.75      22.81
C       6.30       8.37      24.39
C       6.78       8.85      11.68
C       6.75       8.82      13.18
C       5.52       8.88      13.84
C       5.48       8.86      15.23
C       6.64       8.68      16.03
C       7.85       8.58      15.31
C       7.92       8.68      13.92
C       6.57       8.62      17.43
C       6.48       8.58      18.64
C       6.42       8.53      20.04
C       5.22       8.28      20.75
C       5.15       8.26      22.14
C       6.32       8.41      22.89
C       7.54       8.63      22.23
C       7.57       8.72      20.85
N       9.12       8.34      16.03
N       4.15       9.02      15.86
N       8.87       9.05      20.23
N       3.96       8.04      20.01
O       7.41       8.50      24.98
O       5.17       8.23      24.97
O       5.66       8.82      11.08
O       7.92       8.88      11.11
O       9.08       7.60      17.01
O      10.14       8.88      15.56
O       4.09       9.73      16.87
O       3.20       8.44      15.31
O       8.86       9.85      19.29
O       9.87       8.53      20.74
O       4.03       7.36      18.98
O       2.93       8.52      20.50
