20

C       3.79       1.98       4.03
C       6.12       3.02       2.98
C       4.78       2.48       4.87
C       5.10       2.53       2.12
C       2.88       1.59       5.18
C       4.01       2.16       6.13
H       1.92       2.12       5.22
H       2.69       0.51       5.26
H       4.48       1.42       6.79
H       3.72       3.03       6.73
Cl       7.57       3.58       2.23
Cl       5.38       2.53       0.43
C       6.97       3.54       5.38
C       2.74       1.47       1.84
O       7.94       4.26       4.97
O       6.73       3.23       6.60
O       2.54       1.92       0.67
O       2.02       0.61       2.45
C       3.89       2.00       2.64
C       5.98       3.02       4.39
