14

O       5.41       1.23       1.40
C       5.14       2.75       3.91
C       4.22       2.58       2.93
C       4.97       3.66       5.04
C       3.80       4.15       5.50
C       4.28       1.68       1.76
H       3.30       3.16       3.01
H       5.88       3.94       5.57
H       2.83       3.90       5.07
Cl       6.65       1.90       3.96
O       2.66       5.60       6.96
O       4.89       5.32       7.24
C       3.79       5.09       6.64
O       3.15       1.44       1.20
