38

H       4.85       7.73      19.68
H       8.53      13.90      23.28
H       8.67       9.22      18.38
H       4.71      12.41      24.58
H       9.67      11.20      19.45
H       3.71      10.43      23.50
H      10.46      13.43      19.38
H      11.40      12.24      20.35
H      11.52      13.99      20.72
H       1.98       9.38      22.60
H       2.92       8.20      23.58
H       1.86       7.63      22.23
C       6.60      14.25      25.12
C       6.79       7.37      17.84
C       5.66       8.44      19.80
C       7.72      13.19      23.16
C       6.76       8.39      18.93
C       6.62      13.24      24.03
C       7.82       9.29      19.06
C       5.56      12.34      23.90
C       7.80      10.29      20.04
C       5.59      11.34      22.91
C       6.70      10.32      20.96
C       6.68      11.30      21.99
C       5.64       9.38      20.84
C       7.75      12.25      22.12
C       8.84      11.25      20.16
C       4.54      10.37      22.79
C       8.83      12.20      21.15
C       4.56       9.42      21.80
C      10.85      13.20      20.38
C       2.53       8.43      22.57
O       5.46      14.60      25.58
O       7.92       7.03      17.38
O       7.72      14.69      25.52
O       5.66       6.94      17.44
O       9.78      13.15      21.33
O       3.60       8.47      21.62
