15

O      16.66       7.54       7.47
C      17.74       7.36       6.74
N      20.36      10.91       5.82
C      21.81       9.57       4.84
H      18.20       9.51       6.94
O      18.04       6.25       6.26
H      19.99       7.52       5.42
H      21.52      12.70       5.51
C      20.58       9.58       5.49
H      19.51      11.34       6.26
H      22.34       8.72       4.42
C      19.70       8.50       5.80
C      18.56       8.57       6.52
C      21.40      11.63       5.39
N      22.31      10.85       4.80
