24

H       8.32       9.39      15.39
H       4.70       7.67      15.41
O       5.95       7.29      10.15
O       8.17       7.03      22.21
O       8.17       7.79      10.17
O       5.99       7.70      22.22
H       5.73       5.55      16.99
H       6.05       9.53      17.09
H       7.99       5.40      15.29
H       9.34       7.26      16.97
C       7.05       7.54      10.73
C       7.08       7.37      21.64
C       6.48       8.61      16.67
C       7.57       6.32      15.71
C       7.75       8.53      15.76
C       6.30       6.40      16.62
C       7.04       7.53      12.18
C       7.07       7.38      20.19
C       5.73       7.58      15.77
C       8.31       7.35      16.61
C       7.00       7.50      14.81
C       7.05       7.43      17.56
C       7.01       7.52      13.40
C       7.06       7.40      18.98
