46

H       7.58       6.87       0.05
H       5.25       8.20       0.05
H      -2.36       7.12       0.21
H      -0.04       5.75       0.12
H      -1.56      10.97       0.76
H      -3.78       9.11      -0.28
H      -0.16      11.92      -0.32
H       2.15       9.96       0.18
H       5.44       2.14       1.16
H       3.10       3.99       0.41
H       6.87       2.96      -0.07
H       9.09       5.04       0.41
H       2.29       5.48      -0.15
H       2.95       8.41       0.47
C       6.34       5.05       0.18
C       6.59       6.43       0.12
C       5.37       7.12       0.10
C       4.34       6.17       0.13
C      -1.08       8.91       0.25
C      -1.36       7.54       0.18
C      -0.16       6.83       0.16
C       0.90       7.75       0.21
C       9.51       2.93       0.11
C       3.27       1.70       1.20
C       2.01      12.33      -0.27
C      -4.17      11.15       0.32
C      -1.97      10.03       0.39
C      -3.29       9.99       0.12
C       0.82      11.46      -0.17
C       1.09      10.17       0.10
C       4.45       2.57       1.00
C       4.17       3.80       0.54
C       7.26       3.96       0.11
C       8.61       4.08       0.21
C       2.92       6.35       0.07
C       2.31       7.55       0.25
N       4.94       4.90       0.21
N       0.31       9.04       0.25
O      10.77       3.15       0.30
O       9.01       1.78      -0.14
O       2.13       2.25       1.37
O       3.47       0.43       1.14
O       3.15      11.75      -0.22
O       1.84      13.59      -0.40
O      -5.40      10.99      -0.00
O      -3.67      12.24       0.79
