28

H      11.42       3.65      14.88
Br      13.96       7.28      13.39
H       9.57       7.21      15.07
N       9.80       5.14      17.19
N      12.22       8.71      15.98
H       8.95       4.77      16.77
H      10.16       4.47      17.88
H      12.05       9.35      15.21
H      11.76       9.04      16.83
O      11.01       5.84       9.36
O       8.82       6.00       9.99
O      14.43       6.74      20.94
O      12.32       6.00      21.37
H      13.85       4.87      15.72
C      10.07       5.86      10.22
C      11.28       5.88      14.10
C      11.89       7.37      15.67
C      13.25       6.40      20.60
C      12.89       5.38      15.56
C      11.55       4.71      15.12
C      12.14       6.19      16.70
C      10.47       5.75      11.60
C      12.90       6.44      19.20
C      12.64       6.55      14.57
C      10.52       6.69      15.22
C      10.77       5.53      16.24
C      10.84       5.77      12.76
C      12.57       6.34      18.03
