39

H       5.05       1.59       9.47
C       4.54       2.18       6.92
H       4.90       4.31      10.90
C      -0.12       4.29       6.83
C       4.58       2.54       9.72
H       1.32       2.94       4.89
C       5.24       3.31      10.61
H       4.06       4.32       5.04
C       6.49       2.83      11.23
C       2.21       3.31       5.41
C       3.16       3.86       4.63
C       2.96       4.04       3.17
O      -0.99       7.63      11.12
O      -2.14       5.68      11.02
O       6.94       1.69      10.86
O       7.05       3.59      12.09
H       0.75       6.50       9.63
O       3.77       4.83       2.58
H      -0.83       3.89      10.03
C      -1.14       6.42      10.74
O       1.98       3.42       2.63
C      -0.05       5.83       9.94
H       2.83       2.75      11.67
C      -0.00       4.51       9.67
H       2.54       4.49      11.59
C       1.10       3.78       7.56
C       1.13       3.88       8.96
H       1.16       3.40      11.57
C       2.24       3.45       9.70
H       4.82       1.23       7.41
C       3.36       2.92       9.01
H       4.34       1.98       5.86
C       3.34       2.80       7.60
H       5.43       2.83       6.98
H      -0.19       5.38       6.92
C       2.23       3.27       6.87
H      -0.11       4.05       5.76
H      -1.03       3.88       7.28
C       2.19       3.52      11.21
