30

N       4.55      16.43       4.84
N       5.54      22.71      10.34
H       5.44      17.39       7.08
H       4.23      21.52       8.45
H       6.88      18.32      11.17
H       5.50      17.48       9.29
H       1.40      19.80       5.50
O       2.44      16.73       3.30
H       2.45      20.45       7.65
O       6.92      22.01      12.48
O       8.03      20.03      12.49
O       1.31      18.70       3.31
C       2.13      17.86       3.81
C       7.15      20.84      12.04
O       5.31      16.74       3.91
O       4.34      15.29       5.26
O       6.51      23.34       9.91
O       4.52      23.19      10.87
C       2.79      18.22       5.09
C       6.32      20.37      10.89
C       3.91      17.54       5.58
C       4.54      17.91       6.77
C       5.54      21.24      10.12
C       4.77      20.80       9.05
C       6.29      19.01      10.57
C       5.52      18.55       9.51
C       2.28      19.27       5.86
C       2.88      19.64       7.06
C       4.04      18.98       7.52
C       4.77      19.43       8.72
