16

O       6.08       1.90       5.33
H       5.68      -1.02       0.69
H       6.53      -1.75       2.08
C       3.11       1.24       5.40
H       6.85      -0.06       1.66
C       3.67       0.52       4.22
C       5.00       0.47       3.73
C       6.15       1.14       4.28
O       7.33       1.02       3.76
H       2.06       1.51       5.23
H       3.16       0.60       6.30
H       3.70       2.14       5.61
N       3.70      -0.81       2.45
N       2.91      -0.26       3.43
C       4.96      -0.39       2.60
C       6.06      -0.83       1.70
