10

C       9.23       0.00       1.90
O       9.60      -1.08       3.89
O       9.60       1.08      -3.89
C       9.22      -0.00      -1.89
C       9.23       0.00       0.67
C       9.22      -0.00      -0.67
O       8.85       1.08       3.89
O       8.85      -1.08      -3.89
C       9.22      -0.00      -3.33
C       9.23       0.00       3.33
