28

H       6.60       9.63       5.59
H      14.25      14.31       8.09
H       8.15      10.92       7.11
H      12.40      13.52       6.58
H      10.14      12.56       3.67
H      10.04      12.50      10.01
H       8.58      11.26       2.15
N      10.21      12.48       6.21
N      10.07      12.40       7.47
H      11.90      13.30      11.53
O       5.78       8.75       3.42
O      15.41      14.65      10.26
O       6.88       9.54       1.64
O      14.21      14.03      12.04
C       6.67       9.52       2.90
C      14.33      14.20      10.79
C       7.52      10.36       3.79
C      13.19      13.83       9.89
C       7.38      10.28       5.19
C      13.32      13.92       8.50
C       8.23      10.99       6.02
C      12.31      13.49       7.66
C       9.23      11.80       5.46
C      11.13      12.96       8.22
C       9.35      11.91       4.07
C      10.97      12.90       9.61
C       8.50      11.20       3.24
C      12.00      13.34      10.45
