16

H       6.96       9.14       7.96
Cl       2.41      11.77       9.93
H       2.93       9.07       9.44
H       6.92      11.65       8.01
O       3.89      13.89       8.54
O       3.81       6.89       8.55
O       6.07       6.90       8.75
O       6.13      13.80       8.84
C       4.98      13.27       8.73
C       4.94       7.47       8.65
C       4.92      11.77       8.78
C       4.94       8.97       8.67
C       3.80      11.03       9.21
C       6.08       9.68       8.29
C       3.80       9.64       9.12
C       6.05      11.07       8.33
