18

O       7.64      19.53       4.26
C       6.67      19.16       1.72
C       5.31      21.18       1.95
H       4.30      21.75       0.12
O       6.17      21.20       4.69
C       6.28      19.00       0.41
C       6.22      20.24       2.51
H       4.26      22.94       2.17
N       4.78      22.22       2.66
H       6.63      18.16      -0.19
C       4.96      21.03       0.59
H       7.36      18.45       2.19
H       5.09      22.35       3.61
C       6.70      20.33       3.91
C       5.08      19.86      -1.62
O       5.43      18.80      -2.23
C       5.43      19.96      -0.17
O       4.47      20.86      -2.14
