24

C       0.09       7.93       1.01
C       0.22       6.55       1.02
C       0.37       5.81      -0.16
C       0.10       8.66      -0.20
C       0.49       6.54      -1.36
C       0.36       7.93      -1.37
C       0.01       3.49      -1.26
C      -0.45      10.91      -1.35
C       0.07       3.49       0.95
C      -0.57      10.93       0.85
H      -0.08       8.46       1.95
H       0.15       6.03       1.98
H       0.03       3.71      -2.32
H      -0.33      10.69      -2.41
H       0.17       3.71       2.01
H      -0.57      10.72       1.91
H       0.66       6.02      -2.30
N      -0.87      12.13      -0.96
N      -0.29       2.25      -0.82
H       0.42       8.45      -2.33
N      -0.25       2.25       0.54
N      -0.95      12.14       0.40
C       0.24       4.35      -0.16
C      -0.24      10.08      -0.23
