16

F      15.16       6.22      19.57
O      20.20       5.11      22.52
O      19.01       7.05      22.51
C      16.32       4.11      19.46
C      18.22       5.23      21.22
C      16.20       5.43      19.94
C      18.38       3.92      20.77
H      19.24       3.34      21.10
H      16.99       7.01      21.15
H      17.55       2.35      19.53
C      17.12       5.99      20.80
O      14.35       4.16      18.16
C      17.44       3.37      19.90
O      15.60       2.27      18.17
C      15.35       3.47      18.52
C      19.22       5.85      22.16
