23

O      15.67      21.90      10.19
O      16.93      20.87       8.60
O      21.01      18.80      13.80
O      19.75      16.91      13.87
H      18.68      17.15      11.25
H      17.31      18.45       9.65
H      18.20      22.95      12.36
H      18.59      21.19      14.81
H      16.62      23.24      14.29
H      15.72      22.76      12.83
H      16.05      21.56      14.10
C      18.65      20.13      12.83
C      19.99      18.11      13.48
C      19.01      18.80      12.60
C      18.44      18.19      11.47
C      17.64      18.92      10.58
C      17.27      20.25      10.83
C      17.75      20.81      12.01
C      17.76      22.08      12.86
C      18.83      21.31      13.75
C      16.56      21.05       9.80
C      16.46      22.43      13.57
Br      20.61      22.18      13.72
