24

H      16.26       4.17       5.54
H      20.57       4.06       5.37
H      18.25       1.53       2.76
O      18.08       7.24       9.33
O      20.06       7.70       8.30
O      12.73       2.08       2.18
O      13.34       0.12       3.17
O      23.35       1.05       1.48
O      24.00       1.30       3.66
C      17.11       2.79       4.10
C      17.18       3.77       5.11
C      18.43       4.23       5.57
C      19.61       3.71       5.01
C      19.55       2.74       4.00
C      18.30       2.28       3.54
C      18.97       7.08       8.41
C      13.52       1.33       2.85
C      23.15       1.36       2.70
C      15.85       2.32       3.64
C      14.77       1.91       3.27
C      21.84       1.84       3.07
C      20.76       2.23       3.46
C      18.68       6.08       7.42
C      18.52       5.22       6.57
