16

O      18.74      14.82      23.49
C      24.31      12.19      18.22
S      21.83      13.37      18.17
S      21.04      13.71      22.26
C      23.05      12.76      20.41
C      19.84      14.36      20.02
C      23.20      12.71      19.02
C      19.69      14.41      21.41
C      21.06      13.74      19.66
O      25.35      11.80      18.83
O      24.12      12.20      16.95
C      21.82      13.35      20.77
C      18.61      14.97      22.22
Cl      24.15      12.19      21.58
Cl      18.74      14.94      18.85
O      17.64      15.54      21.62
