26

H      23.29      23.28      18.03
H      23.88      23.78      19.63
H      22.30      25.51      19.64
H      21.72      24.98      18.05
H      21.32      24.55      21.74
H      20.01      23.37      21.67
H      22.87      22.81      21.72
O      24.44      21.32      20.48
O      23.28      20.12      18.94
H      21.55      21.63      21.61
H      21.43      21.57      17.87
H      20.72      20.88      19.32
H      19.14      22.60      19.37
H      19.84      23.27      17.91
O      18.61      25.19      18.96
O      19.83      26.25      20.56
C      23.45      21.13      19.70
C      19.60      25.28      19.75
C      22.98      23.50      19.06
C      21.93      24.64      19.08
C      20.62      24.14      19.73
C      20.94      23.69      21.17
C      21.97      22.54      21.15
C      22.38      22.22      19.70
C      21.14      21.81      18.90
C      20.09      22.94      18.93
