26

H      14.35      12.04      21.19
N      16.76      11.38      21.51
H      17.00       7.34      23.70
N      14.41       6.79      23.86
H      12.24       8.03      23.22
H      11.90      11.88      21.38
O       9.96       8.65      22.50
H      16.32      12.27      21.72
H      17.77      11.44      21.60
O      18.99       9.35      21.55
O      19.03       9.42      23.82
O       9.81      10.92      22.33
H      15.06       6.02      23.98
H      13.54       6.48      23.44
C      11.94       9.93      22.31
C      16.95       9.25      22.71
C      14.98       7.93      23.29
C      16.35       8.11      23.28
C      16.18      10.28      22.14
C      14.76      10.15      22.19
C      14.15       8.98      22.76
C      12.74       8.90      22.79
C      12.54      11.08      21.75
C      13.91      11.17      21.67
C      10.46       9.82      22.39
C      18.44       9.35      22.70
