26

H       3.20      10.54       7.99
H       3.24      13.01       7.85
H       7.92      12.80       5.34
H       8.54      12.93       7.00
H       7.86      10.35       5.48
H       9.00      11.79       8.88
H       7.91      10.46       9.32
H       9.67      10.24       9.41
H       8.72       9.11       7.38
H       9.87      10.39       6.93
C       5.18       8.78       7.42
C       6.39      10.97       6.98
C       5.24      10.27       7.37
C       4.11      11.05       7.68
C       4.13      12.44       7.60
C       5.29      13.14       7.20
C       6.40      12.36       6.89
C       7.82      12.41       6.36
C       7.82      10.83       6.47
C       5.31      14.62       7.15
C       8.88      10.20       7.38
C       8.86      10.70       8.83
O       6.28       8.15       7.29
O       4.03       8.24       7.56
O       6.46      15.18       7.12
O       4.19      15.24       7.15
