50

C       5.64       2.69       2.78
C       5.71       1.70       1.74
C       8.25       5.71       2.98
C       3.23       7.46       6.98
C       7.42       8.79       4.07
H       7.86       3.92       4.84
H       6.82       3.22       6.08
H       8.28       5.80       6.18
C       4.12       3.85       8.87
N       6.83       6.03       2.94
H       6.37       5.54       2.17
N       3.69       6.16       7.44
H       8.47       4.63       3.00
N       7.36       7.74       5.10
H       8.72       6.20       3.84
H       8.71       6.13       2.07
H       3.76       6.21       8.46
H       2.32       7.69       7.56
N       5.16       4.62       8.20
H       2.97       7.44       5.92
H       3.94       8.28       7.15
O       5.26       9.45       9.97
H       7.63       8.11       6.01
H       8.46       9.16       4.04
H       6.74       9.63       4.28
H       7.18       8.36       3.10
O       7.54       9.38      10.10
O       4.61       1.33       1.23
O       6.88       1.29       1.42
F       4.40       3.17       6.12
F       7.78       4.67       7.73
F       4.69       6.23       3.45
F       5.05       7.85       5.19
F       3.39       4.84       5.13
H       6.03       4.10       8.12
H       3.52       3.20       8.21
H       4.62       3.22       9.62
H       3.42       4.50       9.42
C       6.41       9.02       9.63
C       4.57       4.50       5.73
C       7.03       4.14       5.52
C       7.40       5.25       6.50
C       6.43       8.02       8.59
C       5.75       4.50       4.71
C       4.85       5.41       7.02
C       6.20       6.23       6.65
C       6.18       6.98       5.23
C       5.93       5.93       4.05
C       6.39       7.20       7.70
C       5.58       3.52       3.67
