52

H       1.97      -2.47      14.10
H       0.68      -9.16      18.63
H       2.11      -1.94      22.31
H      -0.02      -7.00      22.29
H       1.59       0.23      18.63
H       0.47      -6.51      14.08
C       1.30      -4.49       9.92
C      -0.01     -11.68      22.53
C       2.22       2.75      22.54
C       1.66      -3.35      13.55
C       1.22      -4.49      14.23
C       0.46      -9.17      19.70
C       0.34      -7.96      20.39
C       1.83      -0.98      20.40
C       2.06      -0.99      21.78
C       0.07      -7.94      21.77
C      -0.09      -9.15      22.44
C       0.06     -10.39      21.77
C       0.35     -10.37      20.40
C       2.24       0.22      22.45
C       2.14       1.45      21.78
C       1.90       1.43      20.39
C       1.77       0.23      19.70
C       0.81      -5.63      13.53
C       0.84      -5.63      12.14
C       1.28      -4.50      11.43
C       1.69      -3.37      12.15
C       1.48      -3.30      17.65
C       0.79      -5.64      17.64
C       1.18      -4.48      15.71
C       1.62      -2.24      19.67
C       1.08      -4.46      19.76
C       0.55      -6.69      19.67
N       1.11      -4.47      18.35
N       0.78      -5.62      16.31
N       1.55      -3.34      16.32
N       1.74      -2.19      18.33
N       1.32      -3.33      20.41
N       0.50      -6.75      18.32
N       0.80      -5.59      20.41
Cl       0.32      -7.03      11.28
Cl       2.25      -1.97      11.31
Cl       1.69       2.91      19.53
Cl       2.61       0.18      24.13
Cl      -0.51      -9.13      24.11
Cl       0.62     -11.84      19.55
O       3.18       3.53      22.29
O       2.25      -5.11       9.35
O       0.92     -11.89      23.37
O       1.29       2.96      23.38
O      -0.97     -12.48      22.28
O       0.36      -3.87       9.34
