24

C       5.58      10.99       0.41
C       5.55      12.39       0.35
C       4.67      13.12      -0.53
C       7.25      10.99       2.04
H       4.93      10.37      -0.21
H       7.89      10.38       2.67
C       7.30      12.39       2.08
C       8.18      13.13       2.95
C       7.25      16.64       2.04
C       7.30      15.24       2.08
C       8.18      14.51       2.95
C       5.55      15.24       0.34
C       4.67      14.50      -0.54
C       6.42      13.11       1.21
C       6.42      14.52       1.21
H       7.88      17.26       2.67
C       5.59      16.64       0.39
Br       3.54      15.47      -1.70
Br       3.54      12.14      -1.68
Br       9.33      15.49       4.08
Br       9.33      12.15       4.09
N       6.41      10.34       1.23
N       6.41      17.29       1.22
H       4.95      17.25      -0.24
