24

H      11.37       3.52      29.25
H      11.84      -1.11      27.57
S       9.26       3.18      27.49
S      14.10      -0.67      29.13
H       7.85       1.65      27.59
H      14.07      -0.06      31.12
C       9.63      -0.03      26.65
C      13.48       2.38      30.32
O      10.06      -1.04      26.02
O       8.43       0.41      26.61
O      13.46       3.64      30.36
O      14.20       1.63      31.08
O       7.93       2.53      28.07
O       9.46       4.40      28.22
O       9.24       3.18      26.05
O      13.96      -0.97      30.69
O      13.86      -1.92      28.46
O      15.29       0.09      28.87
C      10.62       0.67      27.55
C      12.55       1.72      29.33
C      10.51       1.99      28.02
C      12.69       0.41      28.82
C      11.47       2.50      28.90
C      11.73      -0.09      27.95
