14

H      13.66       9.92       6.99
H      16.16       6.19       9.18
H      16.16       9.92       6.99
N      10.94       8.05       8.08
C      15.60       9.11       7.46
C      14.22       9.12       7.46
H      13.66       6.20       9.18
C      16.29       8.06       8.09
C      13.53       8.06       8.09
C      15.60       7.00       8.71
C      14.21       7.00       8.71
C      17.71       8.05       8.08
C      12.10       8.06       8.08
N      18.87       8.05       8.08
