16

O       5.26       9.67       3.50
C       3.01       6.33      -1.17
C       5.20       7.97       1.16
C       4.09       5.83      -1.89
C       4.11       8.47       1.84
C       4.80       7.18       0.06
C       3.39       7.10      -0.06
S       5.61       6.32      -1.19
S       2.58       7.99       1.17
O       2.96       4.67      -3.58
H       6.23       8.19       1.46
O       5.24       4.68      -3.56
F       1.72       6.10      -1.48
O       2.97       9.67       3.50
C       4.09       5.01      -3.10
C       4.12       9.34       3.03
