16

O      17.50      18.62      26.28
C      18.51      17.94      26.64
C      19.49      18.59      27.58
C      21.47      19.59      29.36
C      19.40      19.91      28.08
C      21.56      18.27      28.86
C      20.39      20.38      28.95
C      20.57      17.80      28.00
C      22.46      20.24      30.29
O      22.21      21.46      30.61
O      23.45      19.56      30.68
H      20.32      21.39      29.33
H      20.64      16.79      27.61
O      18.78      16.75      26.27
Cl      18.14      21.02      27.69
Cl      22.82      17.16      29.26
