46

H      11.53       2.99       5.57
H       7.32      -5.38       7.47
H      10.26       8.03       7.10
H       9.61       5.64       7.38
H      12.59       4.66       4.40
H      13.10       7.07       4.23
H      11.29       1.30       7.06
H       9.97       1.04       5.92
H       8.36       0.77       7.84
H       9.65       1.14       8.98
H      10.96      -0.85       8.10
H       9.62      -1.23       7.03
H       8.12      -1.55       9.05
H       9.49      -1.17      10.10
H      10.74      -3.18       9.19
H       9.23      -3.61       9.98
H       8.13      -3.52       7.63
H       9.77      -3.47       6.96
H      10.01      -8.01       7.43
H       9.40     -10.37       6.90
H       5.38      -9.45       6.70
H       5.80      -7.06       7.22
C      10.73       7.25       6.51
C      10.37       5.92       6.66
C      11.03       4.94       5.90
C      12.01       5.38       4.99
C      12.31       6.72       4.89
C       9.94       2.93       6.87
C      10.20       1.44       6.92
C       9.44       0.68       8.00
C       9.86      -0.79       8.01
C       9.22      -1.61       9.13
C       9.65      -3.09       9.10
C       9.18      -3.79       7.82
C       9.32      -5.30       7.87
C       7.95      -7.32       7.35
N      11.69       7.66       5.65
N      10.84       3.59       6.05
N       8.15      -5.97       7.57
C       8.98      -8.29       7.27
C       6.63      -7.76       7.15
C       8.63      -9.60       6.98
C       6.39      -9.09       6.87
N       7.37     -10.02       6.78
O       9.04       3.50       7.50
O      10.37      -5.87       8.15
