69

O      42.57      21.86      27.95
H      51.82      18.08      23.90
H      51.98      20.72      27.28
O      52.82      29.43      17.88
O      52.56      28.13      16.03
H      50.25      21.86      21.44
H      48.91      21.17      22.42
O      50.24      24.16      20.34
H      48.41      24.04      23.92
H      47.10      24.47      22.77
H      45.64      20.60      24.40
O      47.05      24.00      20.30
H      51.00      22.56      25.89
C      52.48      28.35      17.29
C      51.95      27.25      18.13
C      51.63      27.47      19.48
C      51.73      25.98      17.58
C      51.07      26.46      20.25
C      51.18      24.96      18.34
H      43.92      20.73      26.21
C      50.83      25.20      19.68
C      49.54      24.47      21.55
C      47.79      22.85      20.72
C      46.13      23.83      19.30
C      45.43      24.99      18.91
C      45.87      22.61      18.67
O      50.24      22.37      23.47
O      47.05      22.52      23.51
C      44.47      24.91      17.91
C      44.90      22.54      17.67
C      44.19      23.68      17.28
C      43.14      23.58      16.23
H      44.68      24.94      26.62
C      52.48      18.18      26.52
C      51.95      19.28      25.68
C      51.63      19.06      24.34
C      51.73      20.55      26.24
C      51.06      20.07      23.56
C      51.18      21.57      25.47
C      50.83      21.33      24.14
C      49.54      22.06      22.26
C      47.79      23.67      23.09
C      46.13      22.69      24.52
C      45.43      21.54      24.90
O      52.56      18.40      27.78
C      45.87      23.92      25.14
O      52.81      17.10      25.93
C      44.47      21.62      25.90
C      44.90      23.99      26.14
C      44.19      22.85      26.53
C      43.14      22.94      27.58
C      48.67      23.26      21.91
O      42.89      22.42      15.77
H      46.41      24.82      24.86
H      51.82      28.45      19.91
H      51.98      25.81      16.53
H      50.82      26.66      21.29
H      50.82      19.87      22.52
O      42.57      24.67      15.87
H      51.00      23.97      17.92
H      50.25      24.67      22.37
H      47.10      22.06      21.04
H      45.64      25.93      19.41
H      46.41      21.71      18.95
H      43.91      25.79      17.60
H      44.68      21.59      17.19
O      42.89      24.11      28.04
H      48.91      25.36      21.39
H      48.41      22.49      19.89
