18

O       8.96       2.48       6.31
O       9.85       1.34       1.10
C       8.23       2.13       7.50
C      11.66       4.02      10.12
O       8.73       3.33       1.23
O      11.39       5.17      10.57
C      10.19       2.73       2.92
C      11.02       3.14       5.37
C      10.22       2.95       6.47
H      12.04       3.50       5.53
C      10.67       3.29       7.77
C      10.59       2.90       4.06
C      11.04       3.61       8.88
O      12.50       3.17      10.61
C       9.57       2.43       1.66
H       8.14       2.99       8.17
H       8.72       1.30       8.02
H       7.24       1.82       7.15
