17

H       2.32       6.72       7.34
H       1.09       8.27       8.82
H      -1.39       8.49       8.65
H      -2.65       7.10       7.04
C       1.24       6.80       7.28
C       0.54       7.67       8.10
C      -0.86       7.79       8.00
C      -1.57       7.02       7.11
C      -0.89       6.10       6.28
C       0.55       6.01       6.34
C       0.52       4.42       4.66
C      -0.92       4.44       4.65
C      -1.61       3.53       3.79
Br       1.37       3.26       3.45
N       1.22       5.17       5.48
N      -1.59       5.28       5.44
N      -2.11       2.77       3.06
