34

H       9.81      10.21       9.66
H       9.61      10.18       7.91
H       9.86       7.99       6.70
H      11.92      10.01       7.54
H      12.17       7.58       6.77
H      12.12      10.41       9.24
H      11.99       6.31       7.98
H      11.87       8.57      10.95
H       9.67       6.46       7.57
H      12.20       6.90      10.47
H      10.77       7.75      12.75
H       9.27       6.76      12.63
H       9.18       8.45      13.18
H      11.43       4.96      10.00
H       9.94       4.30      10.73
H      10.96       5.44      11.66
C       8.05       8.22       8.81
C      11.66       7.80      10.19
C      13.73       8.26       8.85
C      10.11       9.68       8.74
C      10.15       7.45       7.61
C      11.64       9.69       8.56
C      11.68       7.33       7.72
C      10.13       7.58      10.13
C       9.58       8.23       8.81
C      12.20       8.29       8.82
C       9.70       7.76      12.50
C      10.58       5.20      10.65
O       9.73       6.20      10.11
O       7.46       9.31       9.07
O       7.47       7.12       8.52
O      14.34       9.36       8.67
O      14.28       7.12       9.03
O       9.45       8.26      11.19
