40

H       8.93      11.19       5.43
H      10.27       7.00      -5.64
H       8.71      10.99       2.96
H      10.47       7.03      -3.16
H      11.16       7.44       3.06
H       8.05      10.61      -3.06
H      11.78       8.41       0.99
H       7.41       9.53      -1.08
H      11.51       8.26      -1.45
H       7.68       9.68       1.36
C       9.09       8.76      -7.26
C      10.15       9.55       7.13
C       9.42      10.38       4.89
C       9.78       7.78      -5.06
C       9.29      10.26       3.51
C       9.90       7.81      -3.67
C       9.91       9.20       2.82
C       9.29       8.83      -2.92
C      10.68       8.28       3.55
C       8.54       9.80      -3.60
C      10.80       8.43       4.93
C       8.42       9.73      -4.98
C      10.17       9.46       5.63
C       9.05       8.75      -5.75
C      10.81       8.63       0.54
C       8.37       9.30      -0.63
C      10.66       8.55      -0.84
C       8.53       9.39       0.75
C       9.44       8.89      -1.45
C       9.75       9.07       1.36
N      11.67       7.45       5.62
N       7.57      10.73      -5.64
O       8.91       7.65      -7.84
O       9.85      10.68       7.63
O       9.39       9.88      -7.79
O      10.39       8.48       7.76
O      12.72       7.88       6.11
O      11.31       6.26       5.59
O       6.77      10.32      -6.50
O       7.68      11.92      -5.28
