32

H       1.81       0.23      20.20
H       1.17       1.02      22.31
H       1.25       2.71      21.80
H       4.86       3.22      19.87
H       3.18       3.72      19.86
H       4.93       3.13      22.22
H       5.37       0.79      20.51
H       4.90       0.67      22.81
H       3.43       4.06      22.17
C       2.12       2.75      26.31
N       0.94       1.95      19.47
O       5.22       1.85      15.56
O       1.29       1.94      26.81
O       2.48       3.89      26.82
O       4.03      -0.08      15.37
H       3.40      -0.23      22.54
H       4.14      -0.45      20.31
H       1.07       1.72      18.49
H       0.95       2.96      19.57
C       4.31       0.56      20.70
C       1.96       1.32      20.29
C       1.78       1.75      21.76
C       2.68       2.41      25.04
C       3.46       1.57      19.90
C       3.98       0.64      22.21
C       3.15       1.92      22.46
C       3.90       3.12      21.84
C       3.88       3.00      20.30
C       2.93       2.15      23.88
C       3.66       1.36      18.49
C       4.40       1.00      15.98
C       3.86       1.21      17.30
