36

H       6.73      11.13       5.53
H       5.50       6.83      -3.01
H       6.67      11.10       3.03
H       6.51      11.01      -3.12
H       5.67       6.92       3.12
H       6.42      10.96      -5.61
H       5.76       6.96       5.61
H       7.82      10.18      -1.29
H       4.36       7.75       1.30
H       7.89      10.22       1.18
H       4.29       7.72      -1.17
H       5.44       6.79      -5.51
C       6.30       9.07       7.22
C       5.88       8.84      -7.21
C       5.66       7.71      -4.97
C       7.05       9.67      -0.72
C       6.51      10.21       4.99
C       5.69       7.74      -3.58
C       6.48      10.19       3.60
C       6.01       8.92      -2.89
C       6.17       9.01       2.90
C       6.28      10.08      -3.64
C       5.90       7.85       3.65
C       6.23      10.06      -5.03
C       5.95       7.86       5.04
C       5.92       8.87      -5.71
C       5.13       8.27       0.74
C       6.26       9.04       5.72
C       7.08       9.69       0.67
C       5.10       8.25      -0.65
C       6.13       8.99       1.43
C       6.05       8.95      -1.41
O       6.39      10.21       7.77
O       5.75       7.70      -7.76
O       6.26       7.95       7.82
O       5.98       9.96      -7.81
