24

H       5.91       1.81      11.89
H       9.91       3.20      12.61
H       5.10      -0.24      13.07
H      10.19       1.56      14.47
H       9.25      -0.32      15.83
H       5.56      -3.27      15.11
C       7.76       3.58      11.03
C       7.88       2.61      12.16
C       7.34      -1.19      15.48
C       5.99      -0.22      13.70
C       6.15      -1.20      14.67
C       8.35      -0.29      15.22
C       8.21       0.69      14.21
C       6.99       0.75      13.46
C       6.84       1.75      12.46
C       9.10       2.52      12.88
C       9.25       1.61      13.90
C       7.44      -2.08      16.67
C       5.18      -2.32      14.69
O       8.86       3.95      10.51
O       6.59       3.93      10.67
O       8.59      -2.40      17.12
O       6.33      -2.43      17.20
O       4.05      -2.26      14.21
