14

C       2.44      11.00       6.71
C       1.60      13.27       3.71
C       2.73      13.77       3.17
H       0.66      13.55       3.23
H       3.72      13.57       3.59
C       1.52      12.40       4.87
H       0.52      12.13       5.23
C       2.57      11.87       5.53
H       3.60      12.07       5.23
O       3.54      10.69       7.28
O       1.28      10.64       7.09
O       3.86      14.98       1.52
O       1.59      14.91       1.45
C       2.72      14.62       1.96
