16

O      11.78       6.95      14.13
O      10.70       6.20      12.26
O      15.82       6.77      10.39
H      14.01       5.73      11.95
H      13.20      10.44      10.31
O      11.38       9.40      11.86
O      15.39       9.28       8.14
O      16.57       9.90      10.00
C      11.63       6.80      12.88
C      12.69       7.41      12.00
C      13.80       6.75      11.63
C      14.80       7.37      10.74
C      14.53       8.77      10.27
C      13.42       9.43      10.64
C      12.41       8.80      11.52
C      15.59       9.37       9.39
