13

C      12.50       8.71       1.61
C      10.16      10.85       3.48
C      11.63       9.93       1.88
O       9.31       9.29       5.10
O       8.61      11.46       5.12
O      12.48       7.75       2.43
O      13.18       8.82       0.54
H      12.29      10.81       1.99
H      10.95      10.09       1.03
H       9.50      11.21       2.66
H      10.84      11.67       3.76
C       9.29      10.48       4.67
O      10.90       9.72       3.07
