40

N       5.24      21.59      19.68
N       4.27      23.74      20.79
N       8.79      22.19      22.05
N       9.12      24.37      23.55
N       3.70      16.57      16.09
H       4.77      25.54      22.58
H       8.29      19.05      16.98
O       4.97      15.26      14.18
H       4.22      23.07      20.02
H       3.68      24.57      20.80
O       7.22      15.46      14.00
H       9.71      22.65      21.99
H       8.67      21.41      21.39
O       5.63      26.45      24.65
H       9.62      23.53      23.81
H       9.17      25.15      24.21
O       7.89      26.52      24.63
H       4.10      18.50      17.81
H       3.61      15.88      15.34
H       2.91      16.81      16.67
H       8.12      17.31      15.17
C       6.09      15.80      14.51
C       5.60      24.86      22.41
C       5.46      23.83      21.49
C       6.52      22.86      21.33
C       7.73      23.06      22.09
C       7.88      24.19      22.95
C       6.78      25.04      23.15
C       6.25      19.87      18.57
C       6.40      21.75      20.40
C       4.99      18.22      17.24
C       4.89      17.20      16.26
C       6.06      16.87      15.52
C       7.26      17.56      15.79
C       7.35      18.52      16.78
C       6.19      18.85      17.51
C       6.77      26.08      24.20
N       7.40      20.82      20.30
N       7.35      19.91      19.35
N       5.16      20.64      18.78
