10

C      10.75       2.26       0.15
C      14.83       7.49      -0.15
C      11.53       3.46       0.14
C      13.85       6.44      -0.14
C      12.26       4.44       0.05
O      11.11       1.35       0.98
C      13.08       5.50      -0.05
O      15.80       7.37      -0.98
O       9.79       2.20      -0.69
O      14.65       8.44       0.70
