18

C       0.00      -2.17      20.74
C      -0.00      -2.76      19.37
C      -0.00      -1.93      18.25
C      -0.00      -2.47      16.95
C      -0.00      -3.89      16.79
C      -0.00      -4.70      17.93
C      -0.00      -4.16      19.21
C      -0.00      -4.53      15.44
H      -0.00      -0.85      18.39
H      -0.00      -2.14      14.96
H      -0.00      -0.65      15.97
H      -0.00      -5.78      17.77
H      -0.00      -4.80      20.10
N       0.00      -1.65      15.86
O       0.00      -2.96      21.74
O       0.00      -0.90      20.90
O      -0.00      -5.81      15.38
O      -0.00      -3.81      14.37
