32

F       6.68       1.66      16.47
F       5.69      -3.65      17.22
F       5.46       3.74      12.83
F       4.43      -5.53      20.93
H       4.54      -0.15      10.65
H       4.79      -1.60      23.21
H       6.34       0.14      20.13
H       6.13      -2.16      13.56
C       5.27       1.40      12.12
C       4.86      -3.20      21.62
C       6.44       0.35      16.67
C       5.93      -2.34      17.02
C       6.24      -0.45      15.53
C       6.03      -1.52      18.16
C       6.03      -1.85      15.72
C       6.34      -0.14      17.98
C       6.13       0.16      14.26
C       5.76      -2.08      19.42
C       5.37      -2.62      20.46
C       5.81       0.73      13.23
C       5.04       2.78      12.00
C       4.41      -4.52      21.81
C       4.62       0.89      10.98
C       4.59      -2.61      22.88
C       6.52       0.70      19.18
C       5.91      -2.71      14.51
N       4.30       3.07      10.92
N       3.91      -4.70      23.03
N       4.04       1.88      10.29
N       4.03      -3.50      23.70
O       6.84       1.88      19.20
O       5.62      -3.89      14.50
