20

H      -2.94      11.05       4.73
H      -4.30      12.45       6.26
H      -8.72      10.90       3.65
H      -8.38      12.42       2.77
H      -7.30       9.63       1.99
H      -6.93      11.16       1.14
C      -3.77       9.89       2.33
C      -5.88      10.95       3.08
C      -4.53      10.68       3.33
C      -3.99      11.23       4.51
C      -4.76      12.02       5.37
C      -6.14      12.22       5.14
C      -6.67      11.66       3.98
C      -7.93      11.49       3.16
C      -7.03      10.69       2.13
C      -7.05      12.89       6.11
O      -6.74      14.02       6.63
O      -8.13      12.25       6.35
O      -4.21       9.97       1.14
O      -2.77       9.17       2.69
