24

N      -5.08      -5.02      15.17
N      -9.45      -1.83      13.67
N      -6.50      -3.96      17.07
N      -8.00      -2.86      11.77
O      -6.05      -4.46      11.07
O      -4.57      -5.22      12.60
O      -9.79      -1.40      16.24
H      -4.58      -5.49      14.42
H      -5.29      -5.60      15.98
H     -10.05      -1.50      14.42
O      -8.62      -2.58      17.77
H      -7.02      -3.47      17.79
H      -5.49      -3.96      17.18
H      -7.38      -3.21      11.04
H      -8.31      -1.90      11.65
H      -9.94      -2.21      12.86
C      -5.65      -4.59      12.30
C      -8.86      -2.24      16.54
C      -6.47      -3.99      13.37
C      -8.05      -2.84      15.47
C      -6.15      -4.24      14.74
C      -8.38      -2.61      14.10
C      -6.92      -3.65      15.78
C      -7.59      -3.16      13.06
