30

H       1.89      19.77      22.10
H      -1.81      25.44      29.08
H       2.46      25.81      28.97
H      -2.38      19.39      22.21
H       1.57      22.68      25.63
H      -1.50      22.53      25.55
H      -2.48      21.04      24.09
H       2.56      24.17      27.09
H      -1.74      23.78      27.23
H       1.82      21.42      23.95
C      -0.20      18.52      20.92
C       0.27      26.69      30.26
C      -0.24      19.49      22.04
C       0.32      25.72      29.14
C       0.94      20.06      22.55
C      -0.86      25.15      28.63
C       0.89      20.98      23.58
C      -0.81      24.23      27.60
C      -0.34      21.35      24.16
C       0.42      23.85      27.02
C      -1.52      20.76      23.65
C       1.60      24.44      27.53
C      -1.47      19.85      22.60
C       1.55      25.35      28.58
C      -0.47      22.30      25.26
C       0.54      22.90      25.92
O      -1.31      18.12      20.46
O       1.39      27.09      30.72
O       0.95      18.16      20.48
O      -0.87      27.04      30.70
