28

N       1.14       8.31       6.21
N      -0.25       5.57       9.78
H       1.49       7.37      10.75
H      -0.59       9.76       7.78
O       3.84       7.45      11.87
O       4.69       5.81      10.66
O      -3.54       9.67       6.39
O      -3.33      10.87       8.24
O       0.71       7.34       5.59
O       0.98       9.50       5.93
O       0.12       4.79       8.90
O      -0.04       5.49      10.99
C       1.89       8.02       7.45
C      -1.01       6.75       9.30
C       3.30       7.94       7.41
C      -2.41       6.77       9.40
C       3.31       7.35       9.62
C      -2.44       8.74       8.21
C       1.94       7.50       9.77
C      -1.06       8.87       8.19
C       1.18       7.79       8.63
C      -0.30       7.80       8.70
I       4.26       8.41       5.63
I      -3.37       5.36      10.57
N       4.00       7.54       8.49
N      -3.12       7.73       8.76
N       4.03       6.83      10.81
N      -3.19       9.85       7.56
