13

O       5.30       9.64       2.41
C       6.88      12.00       5.54
H       9.18      10.15       3.12
C       9.01      11.46       4.82
O       7.37       9.14       1.72
C       8.51      10.67       3.80
N       8.22      12.14       5.68
H       5.22      11.10       4.51
H       6.26      12.54       6.26
C       6.56       9.71       2.52
H      10.08      11.58       4.98
C       7.13      10.53       3.65
C       6.30      11.21       4.56
