32

H      11.20       9.16       4.23
H      10.59       9.06      -4.76
H      10.96       8.38      -0.21
H      11.11       9.16      -2.33
H      11.64       4.63       2.23
H      12.36       5.03       4.58
H      10.41       5.39       0.25
H      10.51       8.78       1.88
H       8.28       5.18      -5.15
H       8.65       4.48      -2.21
C      10.65       6.42       0.50
C      10.61       7.37      -0.47
C       9.58       7.16      -4.63
C      11.05       6.68       1.87
C      11.55       5.63       2.67
C      11.95       5.85       3.98
C       9.31       7.10      -6.07
C      12.21       7.36       5.97
C      11.83       7.12       4.55
C      11.32       8.18       3.78
C      10.94       7.96       2.46
C       9.53       6.15      -2.40
C       9.18       6.12      -3.77
C      10.29       8.26      -4.09
C      10.58       8.30      -2.74
C      10.23       7.24      -1.86
O       8.53       6.15      -6.50
O      12.78       6.40       6.60
O       9.86       7.97      -6.82
O      11.93       8.52       6.45
O       8.47       5.04      -4.17
O       9.15       5.09      -1.63
