32

C      14.43      19.87      15.30
O      12.19      21.39      14.15
H      14.74      17.37      18.26
O      13.69      24.86       8.20
C      15.62      19.17      15.51
H      12.39      20.17      15.99
C      12.33      18.53      18.18
O      15.23      25.96       9.44
C      13.34      21.48      13.71
H      16.49      19.32      14.86
C      13.68      22.36      12.55
H      11.73      22.05      11.67
C      12.70      22.54      11.57
H      12.17      23.53       9.73
C      12.94      23.38      10.48
H      16.06      24.47      11.30
H      15.66      22.95      13.22
C      14.15      24.08      10.39
H      15.28      20.86      13.72
C      15.13      23.91      11.38
C      14.90      23.04      12.44
C      14.38      25.04       9.25
C      17.00      17.48      16.76
N      14.41      20.78      14.23
O      18.04      17.84      16.13
C      15.73      18.25      16.56
C      13.33      19.65      16.15
C      14.65      18.05      17.42
O      17.00      16.50      17.59
C      13.46      18.76      17.22
O      12.63      18.04      19.31
O      11.15      18.82      17.81
