40

H       5.31       4.05       8.34
H       5.37       1.54       8.24
H       4.54      -2.13       9.13
H       8.66      -2.10       7.98
H      10.52       3.70      10.01
H       9.67       5.26       9.87
H      10.49       4.57       8.47
H      10.78       1.89       8.47
H       9.87       0.38       8.78
H      10.31       1.46      10.12
H       4.30      -5.51      10.10
H       3.76      -5.36       8.43
H       3.40      -4.05       9.60
H       9.78      -4.01       7.42
H       8.98      -5.60       7.25
H       9.63      -5.11       8.81
C       6.69      -6.28       8.74
C       7.27       5.74       8.73
C       7.41       4.24       8.75
C       6.24       3.50       8.49
C       6.27       2.12       8.44
C       7.49       1.45       8.63
C       8.68       2.17       8.88
C       8.64       3.58       8.98
C       5.44      -2.70       8.89
C       6.60      -1.98       8.59
C       7.77      -2.67       8.25
C       7.81      -4.07       8.28
C       6.64      -4.78       8.64
C       5.43      -4.09       8.92
C       9.90       4.32       9.36
C       9.98       1.43       9.07
C       4.15      -4.79       9.28
C       9.12      -4.73       7.91
N       7.59       0.05       8.57
N       6.49      -0.57       8.66
O       5.67      -6.96       8.38
O       7.78      -6.78       9.19
O       8.30       6.45       8.45
O       6.11       6.20       8.97
