12

C       1.12      11.93      15.00
C       0.38      12.48      13.77
C      -0.51      13.67      14.16
C       0.20      15.00      14.42
N       1.35      12.88      12.73
H      -0.27      11.66      13.43
O       2.38      12.21      15.10
O       0.42      11.25      15.79
H      -1.25      13.85      13.37
H      -1.08      13.40      15.06
O       1.49      15.02      14.57
O      -0.53      16.02      14.47
