24

C       3.83       6.13      12.43
C       4.07       4.76      12.48
C       4.01       4.09      13.70
C       3.69       4.82      14.84
C       3.47       6.20      14.74
C       3.16       7.06      15.87
O       4.70       2.05      12.74
O       4.01       2.04      14.90
C       2.97       6.62      17.17
C       2.71       7.53      18.19
C       4.27       2.60      13.79
C       2.62       8.89      17.86
C       2.55       7.02      19.62
C       2.80       9.28      16.54
O       2.58       5.79      19.78
O       2.41       7.96      20.48
H       3.87       6.68      11.49
H       4.31       4.20      11.58
H       3.62       4.30      15.79
H       3.02       5.56      17.44
H       2.43       9.62      18.64
H       2.73      10.33      16.24
N       3.55       6.84      13.54
N       3.07       8.39      15.56
