25

N      24.77      16.14       6.58
N      22.25      17.88       4.03
O      25.60      12.71       5.85
H      22.33      10.78       4.63
H      23.87      15.90       2.21
O      20.77      15.55       1.79
O      24.41      10.76       6.03
H      25.87      14.49       2.54
H      26.41      15.96       3.40
H      26.64      14.35       4.14
O      19.58      13.60       1.71
H      20.61      11.79       3.13
C      20.56      14.32       2.08
C      22.74      14.38       3.35
C      21.60      13.69       2.95
C      21.49      12.37       3.42
C      22.45      11.80       4.26
C      23.59      12.52       4.66
C      23.70      13.82       4.17
C      24.59      15.07       4.19
C      23.46      15.72       3.22
C      24.61      11.94       5.59
C      24.68      15.68       5.51
C      25.97      14.96       3.52
C      22.78      16.91       3.67
