40

H       7.77       7.45       1.99
H      10.48       6.70      -3.83
H      10.62       5.68      -5.29
H       8.92       4.74      -3.67
H       8.20       5.15      -5.23
H       2.02       8.85       3.15
H       2.52       8.08       4.67
H       1.44       9.49       4.71
H       3.73      10.22       5.32
H       3.30      10.92       3.76
H       4.97       8.74      -1.88
H       7.53       7.53       4.49
H       4.93       8.43      -4.38
H       9.71       7.20      -5.35
C       5.70       8.68       5.95
C       5.72       8.68       4.44
C       6.66       7.13      -4.39
C       4.74       9.34       3.66
C       6.55       7.02      -5.88
C       7.65       6.46      -3.65
C       4.92       9.29       2.26
C       7.66       6.69      -2.26
C       5.99       8.60       1.66
C       6.71       7.51      -1.62
C       6.94       7.97       2.47
C       5.72       8.13      -2.39
C       6.80       8.01       3.85
C       5.70       7.95      -3.76
C       8.66       5.58      -4.33
C       9.94       6.33      -4.72
C       3.52       9.97       4.28
C       2.30       9.04       4.19
Br       9.03       5.89      -1.19
Br       3.65      10.15       1.12
N       6.04       8.55       0.25
N       6.74       7.60      -0.22
O       5.68       9.80       6.54
O       6.28       5.87      -6.37
O       5.77       7.53       6.49
O       6.70       8.10      -6.53
