40

H      11.72       3.18      21.59
C      12.39       4.04      21.44
C      14.94       4.84      20.08
H      15.76       4.57      22.09
H      15.91       4.45      19.75
C      14.09       2.51      19.70
H      13.25       1.92      19.32
C      14.26       2.36      21.23
H      15.00       2.18      19.18
C      13.66       3.24      24.58
H      15.30       2.17      21.51
C      12.45       4.36      19.93
C      13.85       4.01      19.36
H      13.68       1.51      21.61
C      14.79       4.78      21.61
H      12.00       4.88      22.02
C      13.79       3.65      21.96
H      14.87       5.88      19.73
Br      12.19       6.42      19.75
O      12.75       6.08      15.35
H       9.56       4.32      18.83
H      10.09       4.46      20.52
H       9.46       1.88      18.97
H      10.36       1.87      20.49
H       8.47       2.95      21.70
H       7.86       1.50      20.85
H       7.56       3.12      20.19
H      14.42       5.73      22.00
O      14.96       2.55      26.32
O      11.50       3.75      19.15
C      10.14       3.82      19.62
C       9.60       2.43      19.92
C       8.30       2.50      20.71
O      12.70       2.40      26.55
C      13.73       3.43      23.38
O      15.00       5.85      15.03
C      13.91       4.33      17.95
C      13.96       4.80      16.83
C      13.89       5.62      15.65
C      13.78       2.72      25.91
