33

H      21.34      11.34       6.19
H      24.87      13.14       4.53
H      23.48      14.48       2.92
H      21.63      15.67       1.55
H      19.54      16.43       0.45
H      17.19      13.74       2.86
H      17.90      11.38       3.80
H      19.16      10.63       4.81
O      23.46      10.67       7.26
O      25.30      11.55       6.27
H      19.48      10.98       3.09
H      17.69      13.31       5.48
H      19.14      14.23       5.95
H      18.95      12.55       6.48
O      17.12      16.53       0.07
O      15.95      14.88       1.10
C      21.78      12.03       5.46
C      23.18      12.18       5.44
C      23.78      13.05       4.52
C      23.01      13.80       3.63
C      20.67      15.23       1.84
C      19.50      15.65       1.22
C      18.26      15.11       1.58
C      18.17      14.15       2.60
C      19.50      12.75       4.38
C      21.01      12.75       4.57
C      21.62      13.64       3.66
C      20.58      14.27       2.85
C      19.33      13.74       3.24
C      18.98      11.35       3.99
C      18.78      13.24       5.65
C      24.04      11.41       6.39
C      17.01      15.54       0.86
