24

C      15.27       6.06      13.18
C      16.64       5.83      13.27
C      17.36       5.27      12.19
C      14.54       5.75      12.02
C      16.61       4.85      11.07
C      15.24       5.08      10.99
C      19.64       5.34      11.03
C      12.60       6.57      10.57
H      14.77       6.56      14.01
H      17.18       6.15      14.16
C      19.75       5.29      13.22
C      12.25       6.76      12.75
H      17.12       4.35      10.25
H      14.70       4.76      10.10
H      19.35       5.37       9.98
H      12.98       6.38       9.57
H      19.58       5.23      14.30
H      12.24       6.71      13.83
N      20.94       5.44      11.38
N      11.44       7.22      10.76
N      21.01       5.41      12.75
N      11.23       7.34      12.10
C      18.82       5.25      12.17
C      13.18       6.25      11.81
