27

H       4.47      -3.30      15.59
H       0.46      -3.64      14.08
H       2.80      -1.65      10.95
H       2.03      -1.03       8.66
H       1.25       2.98       9.98
H       4.75      -1.12      14.37
H       2.05       2.37      12.29
H       0.72      -1.46      12.88
O       0.49       2.48       7.71
O       1.36       0.56       6.86
O       1.22      -5.54      15.49
O       3.24      -5.17      16.47
O       2.93       0.08      13.01
C       2.29      -4.86      15.67
C       3.66      -2.89      14.99
C       1.40      -3.08      14.13
C       1.61       1.02       9.18
C       2.46       0.33      11.74
C       2.47      -0.64      10.73
C       2.45      -3.60      14.91
C       2.04      -0.29       9.46
C       1.12       1.37       7.82
C       1.60       1.98      10.21
C       3.82      -1.68      14.32
C       2.03       1.64      11.48
C       2.75      -1.18      13.57
C       1.54      -1.87      13.47
