54

H       3.26      18.68       2.09
H       2.19      24.45      -2.10
H       3.51      19.05      -2.30
H       3.07      24.23       2.26
H       2.65      21.43      -5.78
H       4.08      21.77       5.64
H       3.91      19.74       4.20
H       2.36      23.44      -4.32
C       1.47      18.29      -0.92
C       0.96      24.68       0.91
C       0.42      18.02       0.14
C       0.78      26.01       1.62
O       4.37      18.43      -5.22
O       2.40      24.83       5.15
C      -0.91      17.68      -0.52
C      -0.66      26.19       2.10
O       2.11      18.42      -5.31
O       4.66      24.80       5.24
O       2.79      18.53      -0.37
O       2.31      24.60       0.40
H       1.60      17.41      -1.57
H       1.16      19.14      -1.55
H       0.75      17.20       0.79
H       0.30      18.91       0.78
H      -1.25      18.51      -1.15
H      -1.70      17.48       0.21
H      -0.82      16.79      -1.17
H       0.77      23.84       1.60
H       0.26      24.59       0.06
H       1.48      26.06       2.46
H       1.06      26.82       0.93
H      -1.37      26.22       1.27
H      -0.77      27.11       2.68
H      -0.96      25.35       2.75
C       3.22      18.90      -4.94
C       3.54      24.34       4.87
C       3.54      23.11       4.01
C       3.12      20.13      -4.10
C       3.72      20.73       3.78
C       2.59      22.47      -3.89
C       3.81      21.85       4.58
C       2.77      21.36      -4.69
C       3.23      23.24       2.67
C       3.23      20.01      -2.72
C       3.15      22.11       1.82
C       2.94      21.10      -1.86
C       3.39      20.83       2.41
C       2.67      22.36      -2.48
C       2.88      22.19       0.39
C       2.94      21.00      -0.41
C       2.97      19.73       0.28
C       2.56      23.42      -0.29
C       3.22      19.66       1.62
C       2.45      23.49      -1.65
