13

N       6.81       5.14      13.18
N       9.56       5.06      12.95
H       9.30       3.58      11.52
H       9.62       6.52      14.41
H       6.75       3.65      11.74
C       7.57       5.96      13.94
C       8.79       4.25      12.20
C       8.96       5.89      13.81
C       7.41       4.29      12.33
H       6.33       7.65      14.31
H       6.20       6.40      15.53
H       7.67       7.44      15.49
C       6.92       6.92      14.88
