28

C      10.04       9.82      10.24
C      10.04       7.62       7.20
H       8.85      12.51       9.30
C      10.75       8.44       6.18
C      10.75       9.00      11.26
H       8.85       4.93       8.14
C       8.21      10.76       7.14
C       8.21       6.69      10.31
N       9.84      11.14      10.40
N       9.84       6.31       7.05
N       9.20      11.56       9.29
N       9.20       5.89       8.16
H      11.63       9.53      11.65
H      11.63       7.92       5.79
H      11.07       8.04      10.84
H      11.07       9.40       6.61
H      10.10       8.79      12.12
H      10.10       8.65       5.32
H       7.13      10.87       7.33
H       7.13       6.58      10.12
C       8.96      10.55       8.41
H       8.35       9.91       6.47
C       8.96       6.90       9.04
H       8.35       7.54      10.97
C       9.50       9.40       9.00
C       9.50       8.05       8.45
H       8.56      11.66       6.62
H       8.56       5.78      10.83
