60

C       1.04       5.38       9.72
C      -1.03      20.40       5.17
C       0.76       6.36       8.57
H       2.10       8.60       9.70
C      -0.76      19.42       6.32
H      -2.10      17.19       5.19
C       2.06       7.07       8.17
H       3.68       8.23       9.00
C      -2.05      18.72       6.72
H      -3.68      17.56       5.89
C       0.72       9.49       7.39
H       3.72       6.03      10.15
C      -0.72      16.30       7.50
H      -3.72      19.76       4.74
C       1.46      10.78       7.74
H       3.45       7.32      11.33
C      -1.45      15.01       7.15
H      -3.45      18.47       3.56
C      -0.78      11.84       8.03
H       1.01       6.83      11.34
C       0.78      13.94       6.86
H      -1.00      18.96       3.55
C       1.27      13.18       8.09
H       1.91       5.35      11.71
C      -1.27      12.61       6.80
H      -1.91      20.44       3.18
S       1.81       8.20       6.74
H       0.10       4.90      10.03
S      -1.81      17.59       8.15
H      -0.09      20.88       4.86
N       0.68      11.84       8.06
H       1.70       4.58       9.37
N      -0.68      13.95       6.83
H      -1.70      21.21       5.52
H       0.33       5.85       7.71
H      -0.33      19.94       7.19
O       2.71      10.87       7.73
H       0.01       7.10       8.90
O      -2.70      14.92       7.17
H      -0.01      18.68       5.99
H       2.75       6.34       7.72
H      -2.75      19.45       7.17
H      -0.05       9.66       6.63
H       0.05      16.12       8.26
H       0.19       9.07       8.25
H      -0.19      16.71       6.64
H      -1.13      12.35       8.94
H       1.13      13.44       5.95
H      -1.18      10.83       8.01
H       1.19      14.96       6.88
H       2.36      13.07       8.06
H      -2.36      12.71       6.84
H       0.99      13.69       9.02
H      -0.98      12.10       5.87
C       2.74       7.78       9.34
C      -2.74      18.01       5.55
C       2.99       6.78      10.48
C      -2.99      19.00       4.41
C       1.70       6.08      10.91
C      -1.70      19.70       3.98
