16

S       2.56       3.70       3.62
C       7.16       1.34       1.99
C       6.06       1.88       2.80
F       4.14       2.69       7.05
F       4.57       2.75       1.11
O       7.06       1.46       0.72
O       8.11       0.79       2.64
O       0.60       4.65       5.52
O       1.66       3.98       7.43
C       3.81       2.93       5.77
C       4.90       2.51       2.39
C       2.65       3.57       5.36
S       6.16       1.75       4.54
C       4.07       2.90       3.46
C       4.64       2.54       4.70
C       1.56       4.11       6.17
