20

H      -7.64      10.98      16.53
H      -3.06      10.63      18.24
C      -4.56      10.14      16.48
C      -6.61      10.90      16.90
C      -4.08      10.71      17.86
C      -6.14      11.48      18.29
C      -5.36      10.12      18.55
C      -5.34      11.49      16.22
C      -3.64       9.53      15.48
C      -7.06      12.09      19.29
C      -5.85       9.56      17.16
C      -4.84      12.05      17.61
I      -6.72       7.66      16.86
I      -5.35      12.54      14.40
I      -5.35       9.07      20.37
I      -3.98      13.95      17.91
O      -3.96       8.40      15.00
O      -6.74      13.22      19.77
O      -2.62      10.24      15.19
O      -8.08      11.38      19.57
