22

O       6.37      17.75      13.04
H       5.08      16.47      14.71
O       8.90      11.78      20.08
H      10.35      15.54      17.28
H       4.86      14.86      16.60
O       8.31      18.57      13.91
H      10.17      13.78      19.04
O       6.84      12.60      20.64
H       5.91      13.60      18.47
H       9.26      16.96      15.55
C       8.24      15.52      16.81
C       8.31      16.49      15.78
C       5.94      16.21      15.32
C       5.82      15.31      16.36
C       7.91      12.59      19.94
C       7.30      17.79      13.91
C       6.96      14.94      17.13
C       7.19      16.82      15.04
C       8.02      13.60      18.86
C       9.39      15.10      17.53
C       9.29      14.13      18.51
C       6.88      14.01      18.19
