36

H       7.87      13.29      10.35
H      10.10      24.19       7.38
H      10.77      24.28      11.61
H      11.09      13.12       7.51
H       8.31      15.70      10.72
H      10.04      21.71       7.42
H      10.75      21.79      11.68
H      11.64      15.49       7.98
H      11.02      17.46       7.49
H       9.47      19.89      11.52
H      11.23      19.90       7.59
H       9.35      17.44      11.46
C      10.38      25.88       9.44
C      10.23      22.26       8.34
C      10.59      22.31      10.73
C      10.78      15.03       8.47
C       9.98      15.79       9.35
C      10.40      21.56       9.55
C       9.43      13.07       8.88
C      10.43      24.39       9.49
C      10.70      17.98       8.39
C       9.84      19.36      10.64
C      10.80      19.37       8.44
C       9.01      11.71       8.51
C       9.75      17.97      10.60
C      10.35      20.09       9.56
C      10.17      17.25       9.46
C       8.68      13.79       9.83
C      10.25      23.65       8.31
C      10.61      23.70      10.70
C      10.50      13.69       8.22
C       8.95      15.13      10.04
O      10.16      26.37       8.28
O       8.22      11.05       9.30
O       9.31      11.20       7.39
O      10.55      26.54      10.51
