32

S      12.74       3.93      22.36
S      10.39       3.02      19.91
H      10.95       8.11      22.08
O       8.43       6.17      26.75
H       8.41       5.11      21.38
O      12.88       5.90      15.29
H      13.01       6.65      20.72
O      11.71       7.85      15.46
H      10.71       2.30      21.91
H      13.05       3.07      20.44
H       9.15       7.44      19.97
O       9.44       4.12      26.71
C      10.42       5.84      22.41
O       9.31       2.90      18.99
O      11.72       2.57      19.53
O       9.94       2.27      21.24
C      10.55       4.67      20.51
C       9.43       5.47      21.23
C      11.29       6.09      18.33
O      13.57       4.63      23.29
O      12.01       2.75      22.81
O      13.63       3.56      21.11
C      10.09       5.72      23.78
C      12.07       6.70      15.88
C      10.84       7.14      21.61
C       9.18       5.26      26.23
C       9.84       6.77      20.47
C      11.57       6.30      17.17
C       9.74       5.57      24.94
C      11.97       6.34      20.88
C      10.97       5.97      19.70
C      11.57       5.05      21.65
