13

H      11.49       9.22       9.18
O      14.20      10.67       8.81
C      11.88      10.23       9.33
H      10.31      11.25       6.51
O      12.69       9.37       6.41
O      13.75       9.45      10.62
C      11.42       9.45       6.29
C      13.37      10.11       9.61
H      11.39      10.61      10.24
O      10.76       8.75       5.48
C      10.70      10.47       7.18
N      11.59      11.09       8.16
H       9.84       9.97       7.66
