40

N       1.61       6.30       6.26
N       0.68       3.97       5.45
N       5.01       5.59       3.74
N       5.13       3.56       2.03
N       0.36      10.52      10.75
H       0.90       2.34       3.41
H       4.73       9.72       7.86
O       1.72      12.47      11.93
H       0.49       4.85       5.92
H      -0.12       3.41       5.18
O       3.95      12.61      11.59
O       1.59       1.34       1.34
H       4.97       6.40       4.36
H       5.56       5.62       2.89
O       3.83       1.46       1.03
H       6.01       3.73       2.53
H       5.17       2.70       1.49
H       0.66       8.74       8.85
H       0.28      11.33      11.35
H      -0.48      10.04      10.45
H       4.70      11.49       9.64
C       2.80      12.13      11.32
C       1.74       3.03       3.52
C       1.72       3.98       4.54
C       2.81       4.93       4.63
C       3.93       4.75       3.75
C       3.98       3.67       2.81
C       2.84       2.86       2.66
C       2.69       8.05       7.26
C       2.76       6.06       5.55
C       1.55       9.34       9.04
C       1.51      10.35      10.04
C       2.70      11.11      10.27
C       3.83      10.86       9.47
C       3.85       9.89       8.48
C       2.69       9.11       8.28
C       2.74       1.82       1.62
N       3.83       6.91       5.64
N       3.79       7.91       6.49
N       1.58       7.29       7.11
