22

O      15.20       8.39      10.97
O      14.46      10.22       9.82
O      19.63      15.74      16.43
O      17.55      15.80      15.52
H      17.38      15.33      11.55
H      16.37      13.49       9.81
C      22.06       9.92      11.08
C      15.37       9.49      10.35
C      18.83      13.76      12.03
C      17.78      14.34      11.33
C      17.27      13.40      10.42
C      18.00      12.23      10.56
C      18.80      15.53      15.51
C      19.25      14.90      14.28
C      19.33      14.27      13.24
C      20.95      10.79      11.43
C      20.09      11.64      11.60
C      17.50      10.96      10.31
C      16.68      10.05      10.20
N      19.04      12.47      11.50
O      22.12       9.53       9.87
O      22.90       9.66      12.01
