24

H       1.84       1.19       0.74
H       1.79       0.95      -1.03
H       1.84      -1.54      -0.71
H       1.94      -1.29       1.07
C       4.93       1.35      -0.26
C       5.02      -1.55      -0.00
C       3.78       0.56      -0.14
C       6.21      -0.79      -0.16
C       3.82      -0.82      -0.00
C       6.16       0.65      -0.26
C       2.27       0.62      -0.10
C       2.32      -0.95       0.09
H       7.46      -2.36      -0.27
H       8.10      -0.90      -0.88
H       7.30       2.30      -0.30
H       8.13       0.87       0.20
N       7.48      -1.35      -0.21
N       7.39       1.28      -0.37
C       4.84       2.83      -0.30
C       5.02      -3.03       0.10
O       5.91       3.51      -0.54
O       3.70       3.35      -0.07
O       3.91      -3.64      -0.05
O       6.14      -3.63       0.33
