28

O       5.74       7.93       7.96
O       6.61       5.85       8.32
H      16.70       8.03       2.93
H      15.02      11.92       2.16
O      18.14       9.53       1.66
H       7.18       9.42       6.69
O      17.27      11.60       1.29
H       8.87       5.53       7.46
C       6.66       7.04       7.87
C      17.23      10.41       1.75
C      15.98      10.01       2.47
C      15.87       8.73       3.02
C      14.72       8.36       3.69
C      13.62       9.26       3.84
C      13.77      10.56       3.26
C      14.92      10.93       2.59
C      12.45       8.89       4.52
C      11.43       8.56       5.10
C      10.26       8.19       5.78
C      10.12       6.90       6.35
C       8.96       6.53       7.03
C       7.90       7.44       7.15
C       8.01       8.72       6.59
C       9.17       9.09       5.93
Cl      12.48      11.69       3.41
Cl      14.60       6.78       4.37
Cl       9.29      10.67       5.25
Cl      11.41       5.77       6.21
