14

H      10.27      15.19      10.96
C       9.22      13.74       9.73
H      10.27      17.17      11.94
O       8.07      19.06      13.52
H       7.20      17.14      12.20
O      10.35      19.10      13.49
O       8.08      13.32       9.33
C       8.17      15.60      10.99
C       9.27      14.91      10.62
C       8.17      16.77      11.86
C       9.27      17.45      12.26
O      10.36      13.24       9.42
C       9.21      18.62      13.15
H       7.20      15.25      10.63
