36

H      11.20      10.05       6.22
H       6.94       8.61      -6.69
H      11.17       9.80      -6.47
H       6.21       7.97       4.92
C       9.06       9.55       6.91
C       9.07       9.28      -7.14
C      10.16       9.76       4.67
C       7.82       8.75      -5.03
C      10.19       9.43      -4.91
C       7.90       8.82       4.79
C      10.11       9.68       3.26
C       7.79       8.67      -3.63
C      10.12       9.35      -3.51
C       7.90       8.71       3.40
C       8.98       9.15       2.63
C       8.93       8.98      -2.88
C       9.03       9.38       5.43
C       9.03       9.14      -5.68
C       8.87       8.96      -1.40
C       8.91       9.06       1.15
N       8.20      10.01       0.51
N       9.45       7.93      -0.76
N       8.18       9.97      -0.81
N       9.48       7.98       0.57
Cl      11.44      10.24       2.32
Cl       6.33       8.17      -2.86
Cl      11.51       9.77      -2.57
Cl       6.51       7.97       2.65
O      10.21       9.40       7.47
O       8.00       9.05      -7.82
O      10.18       9.65      -7.69
O       7.99       9.83       7.51
O      11.29      10.22       5.24
O       6.71       8.46      -5.72
O      11.36       9.79      -5.47
O       6.87       8.36       5.54
