13

C       7.36       1.23       3.66
C       8.91       2.93       3.33
C       8.88       3.28       4.68
C       7.28       1.52       5.02
C       8.04       2.57       5.54
C       7.98       2.89       7.02
N       8.16       1.93       2.83
H       6.77       0.44       3.20
H       9.55       3.45       2.61
H       9.49       4.09       5.06
H       6.63       0.94       5.68
O       8.78       3.78       7.44
O       7.12       2.22       7.68
