16

H       2.08      25.70      11.81
C       1.98      21.92      16.43
C       1.98      28.44      12.66
C       2.02      24.49      16.21
C       2.04      25.89      12.88
C       1.99      23.20      15.69
C       1.99      27.17      13.41
C       1.97      24.92      13.90
C       1.96      25.47      15.19
S       1.92      23.20      13.95
S       1.89      27.19      15.15
Cl       2.04      24.86      17.88
O       1.05      21.10      16.16
O       2.91      21.74      17.28
O       1.04      29.27      12.93
O       2.90      28.62      11.80
