12

C       2.61       2.51       6.45
O       2.68       1.82       5.41
H       4.24       4.02       4.87
O       2.51       2.07       7.66
H       3.95       5.61       5.59
H       1.86       4.31       5.54
O       2.33       4.74       7.52
C       5.14       4.31       6.78
O       4.95       3.72       7.90
O       6.27       4.74       6.39
C       3.98       4.54       5.81
C       2.63       4.05       6.29
