20

H       8.41       3.65       4.36
H       8.42       5.14       3.41
H      10.75       5.16       3.41
H      10.80       3.65       4.35
H      10.78       7.28       4.55
H      10.76       7.33       6.32
H       8.42       7.27       4.53
H       8.41       7.34       6.30
H       8.40       3.74       6.74
H       8.40       5.29       7.58
H      10.77       5.30       7.59
H      10.78       3.74       6.76
C       8.82       4.66       4.31
C      10.37       4.66       4.31
C      10.37       6.80       5.45
C       8.83       6.80       5.44
C       8.82       4.75       6.72
C      10.37       4.75       6.73
N      10.89       5.41       5.49
N       8.31       5.41       5.49
