20

H      20.27       6.26      19.48
H      21.13       7.05      20.82
H      22.81       8.00      19.19
H      21.96       7.20      17.85
Cl      25.94       2.99      19.15
Cl      23.92       1.86      21.08
C      25.24       5.82      17.80
C      21.26       3.57      21.54
O      26.25       5.17      17.40
O      24.91       7.01      17.45
O      21.17       2.33      21.83
O      20.46       4.49      21.92
C      22.35       4.05      20.64
C      24.31       5.16      18.78
C      22.20       5.29      20.01
C      24.51       3.90      19.42
C      23.13       5.81      19.12
C      23.56       3.36      20.32
C      21.27       6.48      19.89
C      22.32       7.07      18.88
