78

H       1.18      19.69       6.62
H       1.14      21.75       5.26
H      -0.39      25.79       3.27
H       0.79      27.33      -3.93
H       1.92      27.74      -2.17
H       1.85      27.63       0.27
H       0.79      27.27       2.13
H       1.02      31.47      -6.63
H       0.95      31.64      -4.18
H      -0.46      31.27       0.32
H      -0.23      36.74       5.29
H       1.22      35.15       4.78
H       1.42      33.09       3.47
H       0.48      31.56       2.19
H       0.18      36.99      10.22
H       0.29      34.79       9.10
H      -0.81      30.99       6.49
H       0.44      24.07       8.83
H       1.80      25.41       7.67
H       1.76      27.59       6.54
H       0.49      29.35       5.88
C       0.93      19.43       9.24
C      -0.01      39.40       9.13
C       1.11      29.33      -8.16
C       1.03      20.67       7.10
C       1.00      21.82       6.33
C       0.15      24.49       4.88
C       0.12      25.72       4.23
C       1.02      28.17      -5.88
C       0.89      28.26      -4.50
C       1.36      28.50      -1.62
C       1.32      28.44      -0.24
C       0.91      20.72       8.49
C       0.78      23.08       6.93
C       0.73      24.34       6.15
C       0.68      26.87       4.81
C       0.64      28.16       4.09
C       0.70      28.20       2.69
C       1.00      30.57      -6.02
C       0.93      30.66      -4.64
C       0.13      30.54      -1.60
C       0.09      30.49      -0.20
C      -0.10      38.01       7.00
C      -0.11      36.77       6.37
C       0.74      34.24       5.14
C       0.85      33.07       4.40
C       1.06      29.33      -6.67
C       0.85      29.50      -3.84
C       0.76      29.54      -2.37
C       0.68      29.44       0.51
C       0.64      29.41       1.99
C       0.53      30.60       2.72
C       0.10      36.92       9.13
C       0.15      35.68       8.50
C      -0.46      33.07       6.85
C      -0.34      31.89       6.11
C       0.72      21.97       9.10
C       0.64      23.12       8.32
C       1.29      25.50       6.71
C       1.27      26.73       6.07
C      -0.00      38.10       8.39
C       0.02      35.58       7.11
C       0.08      34.29       6.39
C       0.32      31.86       4.87
C       0.46      30.60       4.12
C       0.53      29.37       4.79
Cl      -0.26      39.43       6.03
Cl       0.52      22.09      10.81
Cl       1.08      26.60      -6.60
Cl      -1.33      32.93       8.34
Cl      -0.62      23.18       4.03
Cl      -0.69      31.91      -2.29
O       2.06      28.72      -8.74
O       1.87      19.23      10.07
O       0.92      40.23       8.90
O       0.20      30.00      -8.74
O      -0.94      39.55       9.99
O       0.01      18.60       8.96
