24

H      16.89       9.80       6.88
H      14.00       6.64      11.85
H      14.52       7.60      13.26
H      15.39       6.11      12.83
H      16.97       6.15      10.71
H      15.48       6.52       9.80
H      16.68       8.18      12.09
H      15.28       8.69      11.12
C      18.78       9.16       7.69
C      12.52       8.70       8.23
C      21.42       9.06       7.81
C      13.96       8.61       8.32
C      16.59       8.48       8.50
C      17.39       9.19       7.63
C      16.32       6.96      10.36
C      15.82       7.81      11.52
C      14.88       6.99      12.41
C      15.18       8.54       8.40
C      20.00       9.12       7.73
O      11.97       7.88       7.42
O      22.08       9.79       6.99
O      11.97       9.58       8.96
O      21.91       8.28       8.71
O      17.17       7.70       9.45
