26

H      11.00      14.05      18.14
H      10.34      13.42      19.66
H      11.91      11.69      19.60
H      12.56      12.34      18.09
H      12.81      12.47      21.81
H      14.12      13.65      21.89
H      11.26      14.22      21.87
H      12.58      15.39      21.92
H      12.88      15.76      18.20
H      13.52      16.32      19.74
H      15.09      14.59      19.71
O       9.79      15.89      20.72
H      14.45      14.04      18.16
O      10.92      17.02      19.11
O      14.33      10.87      20.57
O      15.60      12.01      19.07
C      10.77      16.05      19.92
C      14.59      11.89      19.84
C      11.26      13.75      19.16
C      12.31      12.60      19.13
C      13.59      13.04      19.87
C      13.21      13.37      21.33
C      12.18      14.52      21.36
C      11.84      14.97      19.92
C      13.12      15.43      19.21
C      14.16      14.29      19.19
