30

H       1.71       2.66      22.77
H       2.16       2.81      20.47
H      -1.55       2.85      19.87
H      -0.15       1.80      20.13
H      -0.64       1.79      22.43
H      -1.96       2.93      22.18
H       0.33       6.08      20.24
H      -1.27       5.38      20.03
H       0.08       6.03      22.57
H       2.33       4.56      20.59
H       2.01       4.40      22.91
H      -1.56       5.42      22.36
C      -1.01       3.35      26.60
O       0.91       5.50      15.68
O       2.05       3.53      15.59
O      -0.76       2.18      27.02
O      -1.69       4.25      27.23
C       1.26       4.38      16.15
C       1.67       3.72      20.84
C      -0.62       2.75      20.45
C      -0.90       2.75      21.97
C      -0.56       3.68      25.28
C       0.33       3.92      20.09
C       1.42       3.64      22.37
C      -0.08       3.87      22.67
C      -0.51       5.24      22.09
C      -0.32       5.25      20.56
C      -0.33       3.80      24.10
C       0.58       3.96      18.67
C       0.81       4.06      17.48
