26

H       3.77       7.39      11.71
H       0.94       4.45      13.63
O       1.82       5.91       7.88
O       3.48       3.87       9.06
H       4.36       9.58      10.66
O       0.82       2.04      14.13
O       4.48      11.21       8.83
O       3.69      10.47       6.85
O       1.61       0.70      12.49
H       1.53       6.45      12.25
H       2.68       1.92      10.62
H       2.62       8.24       6.97
C       2.84       6.57       9.95
C       1.38       1.86      13.00
C       3.52       9.05       8.76
C       1.78       3.06      12.21
C       1.46       4.34      12.68
C       2.44       2.92      10.99
C       2.86       8.06       8.02
C       1.80       5.45      11.91
C       3.84       8.81      10.10
C       3.50       7.59      10.67
C       2.46       5.33      10.67
C       3.92      10.33       8.11
C       2.80       4.03      10.22
C       2.51       6.84       8.60
