44

H       5.45      10.78       2.15
H       5.88       7.31      -2.44
H       8.40      10.72       2.42
H       5.25       7.48       2.12
H       8.95      10.65      -2.13
H       5.12      10.16      -5.56
H       6.35      10.95       6.64
H       5.36      10.08      -2.44
C       7.52       9.05       7.12
C       7.20       9.09      -1.41
C       8.17       8.66      -7.12
C       7.99       8.78      -5.63
C       6.81       9.36      -5.17
C       6.51       9.98       5.04
C       6.58       9.46      -3.79
C       6.28       9.96       3.65
C       7.50       8.96      -2.86
C       6.93       9.01       2.84
C       8.69       8.36      -3.34
C       7.35       9.00       5.63
C       7.79       8.05       3.44
C       8.94       8.29      -4.72
C       7.99       8.03       4.82
C       6.25       8.24      -0.81
C       7.77      10.04       0.75
C       6.07       8.28       0.59
C       7.93      10.02      -0.64
C       6.86       9.15       1.36
Br       8.69       6.83       2.29
Br      10.56       7.58      -5.39
Br       9.24       6.79       5.54
Br       9.91       7.62      -2.09
O       7.71       7.97       7.75
O       5.92      10.97       5.74
O       5.41      10.07      -3.42
O       5.47      10.91       3.12
O       5.53       7.32      -1.52
O       8.56      10.89       1.47
O       5.19       7.40       1.15
O       8.85      10.87      -1.19
O       8.28       9.76      -7.76
O       7.42      10.21       7.67
O       8.13       7.49      -7.61
O       5.88       9.82      -6.06
