32

H      18.47      11.77       6.25
H      16.49      12.66       8.10
H      14.46       9.27       7.59
H      14.48      11.79       6.28
C      16.62      11.51       1.58
C      15.43       7.78       4.82
C      19.64       9.67       8.40
H      15.36       8.50       4.00
O      15.50       8.26      12.35
H      14.49       7.78       5.39
H      15.62       6.77       4.42
O      17.77       8.43      12.47
O      17.77      11.81       1.14
O      15.51      11.57       0.93
H      19.20       9.91       9.39
H      20.01      10.60       7.93
H      20.46       8.96       8.53
C      16.62       8.70      11.96
O      16.54       8.08       5.68
O      18.67       9.03       7.55
C      16.48      11.71       7.56
C      17.59      11.22       6.57
C      16.53      11.10       2.96
C      16.60       9.52      10.78
C      15.36      11.22       6.58
C      16.47      10.75       5.56
C      15.35       9.82       7.27
C      16.47      10.30       8.28
C      16.46       9.30       6.29
C      17.59       9.80       7.25
C      16.49      10.95       4.16
C      16.51       9.97       9.65
