11

O       5.85       1.56       4.37
O       6.10      -1.02       4.08
H       3.78      -0.99       6.49
H       6.49      -0.21       3.69
C       5.19      -0.59       4.99
C       4.47      -1.42       5.77
C       4.56      -2.91       5.68
C       5.03       0.89       5.10
O       3.86      -3.45       4.76
O       4.13       1.35       5.86
O       5.31      -3.49       6.53
