20

H      29.30      12.77      18.04
H      30.04      14.40      18.06
H      31.86      13.58      16.51
H      31.10      11.97      16.47
Cl      34.98      11.27      20.91
Cl      32.80      12.14      22.80
C      34.29      11.28      17.84
C      30.12      13.31      21.46
O      34.89      10.20      18.17
O      34.38      11.87      16.72
O      29.11      13.74      20.80
O      30.22      13.26      22.72
C      31.26      12.82      20.62
C      33.34      11.86      18.83
C      31.16      12.89      19.24
C      33.50      11.82      20.24
C      32.16      12.44      18.37
C      32.48      12.28      21.12
C      30.25      13.32      18.10
C      31.38      12.81      17.12
