16

O       0.57       5.19       1.31
C       1.54       2.41       5.37
C       1.65       4.03       3.06
C       0.38       2.95       4.80
C       2.83       3.52       3.62
C       0.41       3.74       3.66
C       2.76       2.71       4.75
O       2.84       5.25       1.42
F      -0.84       2.73       5.34
H       3.78       3.77       3.16
H      -0.51       4.14       3.24
H       3.66       2.30       5.19
O       0.43       1.27       7.14
C       1.54       1.53       6.58
O       2.68       1.11       6.96
C       1.69       4.89       1.84
