20

H      11.01      -1.92       8.88
H      10.48       0.35      10.90
H       9.52      -1.15      10.76
H      13.22      -2.74      14.31
H      11.97      -0.42       9.03
C      10.95      -1.21      14.15
C      11.50      -1.45      11.71
C      11.79      -1.74      13.04
C      12.95      -2.50      13.28
C      13.77      -2.92      12.23
C      13.48      -2.61      10.88
C      12.33      -1.87      10.67
C      11.48      -1.22       9.59
C      10.54      -0.74      10.77
C      14.31      -3.11       9.74
Cl      15.18      -3.87      12.59
O       9.91      -0.55      13.80
O      15.30      -2.38       9.36
O      11.35      -1.40      15.36
O      13.94      -4.20       9.22
