34

H      -2.61      12.35      12.31
H      -6.11      12.10       9.85
H      -5.85       6.03      14.26
H      -7.76       9.09      16.62
O      -2.64      13.92      10.44
O      -7.38       5.16      16.10
N      -3.35      10.64      14.15
N      -7.43      10.34      11.27
N      -4.79       7.60      12.46
N      -7.09      11.15      15.13
C      -7.19       8.79      15.75
C      -6.74       9.74      14.84
O      -4.13       6.57      12.64
C      -3.72      13.39      10.06
C      -4.29      12.34      10.97
C      -3.59      11.93      12.10
C      -4.16      11.01      12.98
C      -5.44      10.45      12.78
C      -6.10      10.87      11.61
O      -4.37      13.65       9.00
C      -5.55      11.79      10.73
C      -5.98       9.42      13.71
C      -5.64       8.06      13.57
C      -6.11       7.08      14.44
C      -6.90       7.44      15.53
O      -7.90       9.43      11.97
C      -7.44       6.40      16.46
O      -4.79       8.26      11.40
O      -6.94      11.98      14.21
O      -7.52      11.42      16.25
O      -7.97       6.75      17.55
O      -2.12      10.59      13.98
O      -3.93      10.40      15.22
O      -8.02      10.83      10.29
