28

C       5.01      11.84      10.64
H       8.02      11.66       7.28
H       8.29      14.16       7.09
N       7.77      16.49       8.07
N       6.81      15.93       8.67
N       6.62      11.76       8.79
N       7.72      20.68       8.20
H       9.16      20.65       6.73
H       5.36      14.53      10.22
H      10.18      18.68       5.84
H      10.08      17.16       6.77
H       8.92      17.47       5.48
H       4.38      12.56      11.17
H       4.39      11.07      10.16
H       5.65      11.30      11.37
H       6.23      18.05       9.69
H       6.28      20.58       9.69
C       6.91      19.99       9.02
C       6.88      18.60       9.01
C       7.71      17.91       8.12
C       8.57      18.63       7.26
C       8.53      20.02       7.35
C       7.61      13.72       7.81
C       7.46      12.34       7.91
C       6.83      14.52       8.66
C       5.89      12.52       9.64
C       5.96      13.91       9.57
C       9.49      17.95       6.29
