28

C       6.61       0.15       6.98
C       7.03       1.18       7.82
H       3.25      -1.05      13.36
C       6.44       1.34       9.07
H       4.70      -1.43      11.37
C       2.21       1.31      14.23
H       4.66       2.80      10.57
C       5.17      -1.80       6.49
H       3.28       3.17      12.61
C       8.15       2.08       7.38
H       4.35      -1.35       9.03
O       1.55       0.33      14.67
H       7.02       0.05       5.98
H       6.77       2.17       9.70
O       2.10       2.54      14.62
O       8.37       3.13       8.04
O       8.83       1.66       6.37
O       4.57      -2.86       6.89
C       3.17       1.08      13.10
O       5.28      -1.62       5.23
C       3.58      -0.21      12.76
C       4.38      -0.42      11.63
C       4.76       0.66      10.82
C       4.39       1.96      11.20
C       3.61       2.17      12.33
C       5.46       0.44       9.53
C       5.10      -0.63       8.71
C       5.64      -0.75       7.42
