15

H       5.20       9.68      31.94
C       4.98      10.05      29.81
N       3.72      10.56      29.64
C       7.55       9.07      29.49
C       5.67       9.63      30.96
O       8.93       8.32      31.95
H       8.56       8.67      29.41
C       6.88       9.50      28.36
N       3.54      10.81      28.34
C       6.96       9.14      30.79
O       6.99       8.58      33.08
C       5.58       9.99      28.53
N       4.64      10.47      27.66
H       7.34       9.45      27.37
C       7.71       8.65      32.00
