36

C      -2.77      10.35      14.61
C      -1.37      10.33      14.62
C      -0.62       9.62      13.63
C      -2.79      11.75      16.59
C      -1.39      11.77      16.65
C      -0.65      12.48      17.67
C       3.57      11.09      15.63
C       0.75      11.04      15.62
C      -3.48      11.06      15.59
C      -0.66      11.05      15.64
C      -1.35      13.25      18.77
C       1.44       8.83      12.50
O      -5.56      11.73      16.51
O       5.65      10.44      14.69
O      -5.56      10.41      14.65
H       3.42      12.32      17.39
H       1.28      12.99      18.40
O       5.65      11.75      16.55
H      -3.33       9.81      13.84
H      -1.19       9.08      12.86
H      -3.39      12.28      17.33
H       3.48       9.86      13.90
H      -1.06      12.87      19.75
H      -2.44      13.21      18.71
H      -1.05      14.31      18.73
H       1.15       7.77      12.53
H       2.53       8.87      12.56
H       1.15       9.21      11.51
C      -4.97      11.07      15.58
C       5.06      11.10      15.62
C       2.86      11.77      16.62
C       1.46      11.76      16.63
C       0.72      12.46      17.64
C       2.88      10.37      14.64
C       1.48      10.33      14.61
C       0.75       9.60      13.59
