40

C       7.84      24.95      16.65
C       7.96      24.73      15.27
C       9.12      25.08      14.58
C      10.19      25.69      15.30
C      10.07      25.92      16.70
C       8.89      25.55      17.35
C      11.38      26.06      14.62
C      12.41      26.38      14.03
C      13.59      26.75      13.35
C      13.72      26.52      11.95
C      14.89      26.89      11.30
C      15.95      27.49      12.00
C      15.82      27.72      13.38
H      16.65      28.18      13.91
H       7.13      24.26      14.74
H       8.78      25.72      18.42
H      15.00      26.72      10.23
C      14.67      27.36      14.07
C      11.17      26.56      17.50
C       9.20      24.82      13.10
C      14.59      27.63      15.55
C      12.61      25.88      11.15
O      18.13      28.40      11.99
O      17.24      27.66      10.03
H      10.82      27.49      17.98
H      12.04      26.80      16.88
H      11.50      25.89      18.31
H       9.08      23.74      12.89
O       5.66      24.04      16.66
O       6.55      24.78      18.62
H      10.15      25.14      12.68
H       8.39      25.34      12.57
H      15.39      27.10      16.08
H      12.28      26.56      10.35
H      11.75      25.63      11.77
H      12.97      24.96      10.66
H      13.63      27.31      15.96
H      14.71      28.70      15.76
C      17.20      27.88      11.29
C       6.59      24.56      17.36
