51

C       4.29      20.31       9.29
C       6.73      14.06      12.94
C       6.73      14.03       5.71
C       6.73      20.31       9.29
H       3.36      12.25      13.67
H       3.36      14.30       3.78
H       3.36      21.84      10.50
C       5.51      14.68      12.66
C       5.51      13.96       6.38
C       5.51      19.75       8.90
H       7.65      12.25      13.67
C       5.51      16.00      10.69
C       5.51      15.01       8.51
C       5.51      17.39       8.74
H       7.65      14.30       3.78
H       7.65      21.84      10.50
H       3.36      14.59      12.73
H       3.36      13.95       6.27
H       3.36      19.86       8.94
C       5.51      17.28      10.13
C       5.51      14.85       9.90
C       5.51      16.27       7.91
H       7.65      14.59      12.73
H       7.65      13.95       6.27
O       4.37      10.12      14.29
O       4.37      14.83       1.62
H       7.65      19.86       8.94
O       4.37      23.45      12.03
H       5.51      18.16      10.77
H       5.51      13.86      10.34
H       5.51      16.38       6.83
O       6.64      10.12      14.29
O       6.64      14.83       1.62
O       6.64      23.45      12.03
C       5.51      10.68      14.14
C       5.51      14.68       2.18
C       5.51      23.04      11.63
O       5.51      15.95      12.07
O       5.51      13.83       7.77
C       5.51      12.11      13.71
O       5.51      18.61       8.09
C       5.51      14.33       3.63
C       5.51      21.95      10.60
C       4.29      12.77      13.47
C       4.29      14.21       4.33
C       4.29      21.41      10.15
C       6.72      12.77      13.47
C       6.72      14.21       4.33
C       6.72      21.41      10.15
C       4.29      14.06      12.94
C       4.29      14.03       5.71
