19

H       5.52      13.26       8.00
H       5.50      13.17       9.82
H      -0.53      14.47       9.57
H       0.46      16.75       9.69
C       3.03      17.49       9.51
C       2.49      16.10       9.39
C       2.70      13.69       9.11
C       4.95      13.47       8.92
C       1.34      13.46       9.29
C       0.73      12.11       9.39
C       3.27      14.97       9.17
C       0.54      14.61       9.46
C       1.10      15.88       9.52
O       4.27      17.68       9.24
O       2.20      18.38       9.88
O       1.46      11.04       9.15
O       4.63      14.88       8.97
O      -0.47      11.96       9.69
O       3.69      12.77       8.86
