20

H      14.36       2.81       1.60
H      14.01       2.57       6.52
H      16.96       4.56       3.41
H      16.25       4.23       1.86
H      11.29       1.01       4.72
H      11.90       1.51       6.27
N      16.38       3.96       2.83
N      12.08       1.29       5.30
C      16.12       3.93       5.82
O      15.91       3.79       7.07
O      17.12       4.58       5.32
C      12.21       1.52       2.31
O      11.19       0.91       2.81
O      12.42       1.66       1.05
C      15.16       3.30       4.88
C      13.20       2.09       3.25
C      15.30       3.37       3.46
C      13.08       1.99       4.67
C      14.30       2.77       2.69
C      14.07       2.61       5.43
