44

H       9.25       7.78       2.66
O       2.85      10.52       2.82
O       3.20       9.53       5.78
O       8.29       6.48      -2.86
O       8.81       8.32       5.78
O       7.71       7.17      -5.95
O       2.34      10.59      -4.15
H       2.26       9.60      -1.99
H       3.83      10.32       1.04
H       7.57       7.15      -1.07
H       3.88      11.22       4.86
H       7.01       5.71      -4.72
H       8.69       6.75       4.50
H       2.81       9.39      -5.73
C       5.05       8.48      -6.32
C       6.00       8.62       6.33
C       4.96       9.47       2.76
C       6.34       7.81      -2.79
C       4.98       9.43       4.17
C       6.18       7.69      -4.18
C       6.03       8.78       4.83
C       5.15       8.41      -4.81
C       7.12       8.29       4.10
C       4.21       9.11      -4.04
C       7.13       8.35       2.69
C       4.34       9.22      -2.65
C       6.00       8.88       1.99
C       5.45       8.60      -2.00
C       5.88       8.81       0.59
C       5.65       8.73      -0.61
C       8.37       7.94       1.99
C       3.31       9.93      -1.84
C       3.80      10.14       2.13
C       7.48       7.10      -2.17
C       3.90      10.12       4.97
C       7.07       6.79      -4.99
C       8.30       7.73       4.84
C       3.05       9.75      -4.70
O       5.12       9.66      -6.78
O       6.08       7.43       6.76
O       4.87       7.39      -6.93
O       5.88       9.70       6.99
O       8.50       7.81       0.78
O       3.59      10.77      -0.99
