20

N       2.38      10.47      15.66
C       0.07       9.98      15.05
H       5.39      10.33      16.61
N       3.70      10.33      15.32
C      -0.94       9.98      14.09
H       1.33      10.81      17.52
C      -0.67      10.41      12.78
H      -0.12       9.62      16.06
C       0.63      10.80      12.43
H      -1.94       9.63      14.32
C       1.65      10.80      13.37
H       0.83      11.07      11.40
O      -2.86       9.86      12.04
C      -1.76      10.46      11.76
O      -1.58      11.10      10.67
H       2.66      11.10      13.12
C       4.32      10.41      16.49
N       3.47      10.59      17.55
C       2.26      10.64      17.00
C       1.35      10.42      14.68
