22

H       1.91       4.96       5.09
H       2.85       7.24       9.19
H       1.48       8.26      10.98
H      -1.01       8.39      10.73
H      -2.10       7.49       8.72
H      -0.58       5.02       4.87
C       3.43       6.15       6.90
C      -2.35       6.25       6.41
C       1.77       7.30       9.08
C       1.00       7.87      10.07
C      -0.40       7.94       9.94
C      -1.02       7.43       8.82
C      -0.27       6.82       7.78
C       1.16       6.76       7.91
C       1.93       6.11       6.90
C       1.30       5.47       5.84
C      -0.10       5.51       5.72
C      -0.87       6.20       6.63
O       3.96       7.29       6.76
O       4.04       5.04       7.00
O      -2.93       7.38       6.56
O      -2.93       5.16       6.10
