20

H       0.39      13.59       5.67
H       0.52      14.80       3.48
H       5.70      15.43       4.09
H       5.71      13.85       3.24
H       5.58      14.22       6.32
H       5.58      12.65       5.47
C       2.44      12.75       7.24
C       3.69      13.76       5.30
C       2.50      13.44       5.92
C       1.34      13.83       5.22
C       1.41      14.49       4.00
C       2.63      14.81       3.38
C       3.76      14.41       4.07
C       5.26      14.42       4.06
C       5.18      13.67       5.45
C       2.65      15.52       2.07
O       3.57      12.54       7.80
O       1.29      12.44       7.69
O       3.79      15.69       1.53
O       1.52      15.87       1.61
