16

O      12.36      17.08      10.01
O      14.13      11.21       6.08
O      14.06      16.01      11.08
O      12.47      12.31       4.99
C      13.29      12.16       5.95
H      15.10      14.26       9.70
C      13.26      13.18       7.04
C      13.23      15.10       9.06
H      15.13      12.53       7.89
C      14.29      14.19       8.97
H      11.39      14.03       6.39
C      12.20      14.09       7.12
C      14.31      13.24       7.97
C      12.18      15.04       8.14
C      13.22      16.14      10.13
H      11.35      15.75       8.21
