32

H       3.60       5.99       4.87
H       3.70       6.42       2.41
H      -0.54       4.89       4.51
H       3.69       4.87      -4.61
H      -0.40       6.20      -4.69
H      -0.36       6.47      -2.20
H      -0.51       5.12       0.86
H      -1.43       4.64       2.23
H       3.86       4.89      -0.95
H       4.69       4.47      -2.39
C       1.47       5.09       6.28
C       1.64       5.42      -6.27
C       1.52       5.40       4.82
C       2.73       5.83       4.24
C       2.78       6.07       2.87
C       1.66       5.82       2.05
C       0.43       5.40       2.65
C       0.38       5.22       4.03
C       1.73       5.91       0.64
C       1.68       5.88      -0.58
C       1.67       5.79      -1.99
C       2.84       5.32      -2.67
C       2.80       5.21      -4.07
C       1.64       5.51      -4.78
C       0.49       5.96      -4.11
C       0.52       6.10      -2.74
N      -0.68       5.21       1.86
N       3.98       5.04      -1.95
O       2.59       4.85       6.85
O       2.76       5.23      -6.85
O       0.52       5.57      -6.86
O       0.32       5.06       6.83
