36

H      10.01       7.62      15.86
H       5.79       8.47      15.77
H       5.80       8.46      20.32
H      10.04       7.67      20.17
H       4.68       8.91      22.20
H      11.35       7.61      22.00
H      11.29       7.52      14.04
H       4.66       8.94      13.93
C       8.18       8.51      24.39
C       6.79       8.46      13.86
C       8.01       8.31      13.17
C       7.89       8.03      16.01
C       7.85       7.95      17.42
C       7.86       7.96      18.64
C       6.77       8.35      20.82
C       9.13       7.91      20.74
C       6.84       8.53      22.21
C       9.22       8.09      22.12
C       8.08       8.40      22.88
C       7.91       8.05      20.05
C       8.09       8.40      11.66
C       5.56       8.85      22.89
C      10.57       7.94      22.72
C      10.51       7.86      13.31
C       5.49       8.72      13.20
C       9.10       7.86      15.31
C       6.74       8.34      15.26
C       9.17       8.01      13.92
O       8.14       7.39      24.97
O      10.85       8.17      23.89
O      10.80       8.09      12.15
O       8.30       9.66      24.90
O       5.27       8.70      12.00
O       8.08       7.27      11.09
O       8.15       9.55      11.14
O       5.43       9.06      24.09
