69

C      12.48      13.78       5.51
H      17.89      17.41       7.72
H      16.07      16.79       6.10
H      14.59      13.88       8.91
H      16.45      14.46      10.47
H      12.75      14.15       7.64
H      13.96      13.05       6.91
H      11.03      15.23       6.26
H      12.19      15.91       5.07
O      19.01      17.40       9.91
O      18.60      15.52      11.13
O      14.24      15.07       6.49
H      10.10      17.23       5.26
O      10.68      14.70       4.27
H       9.00      14.05       2.55
O      19.09      10.17       1.29
O      18.70      11.96      -0.05
O      14.25      12.51       4.54
O      10.68      12.86       6.75
O       6.25       8.42       8.16
O       5.90      10.08       9.67
O       6.19      19.10       2.87
O       5.88      17.44       1.34
H      17.95      10.22       3.40
H      16.10      10.83       4.99
H      14.62      13.67       2.11
H      16.51      13.09       0.57
H      12.75      13.40       3.38
H      13.95      14.52       4.10
H      11.04      12.33       4.77
H      12.20      11.66       5.96
H       8.98      13.51       8.45
H       7.15      12.06       9.36
H       8.28       8.92       6.68
H      10.15      10.33       5.79
C      18.38      16.30      10.16
C      17.28      15.96       9.20
C      17.16      16.63       7.96
C      16.15      16.30       7.07
C      15.22      15.31       7.41
C      15.32      14.64       8.64
C      16.35      14.97       9.52
C      13.36      13.96       6.75
C      11.59      15.03       5.33
C       9.66      15.55       3.94
C       8.82      15.06       2.94
C       7.80      15.85       2.45
C       7.57      17.14       2.95
C       8.40      17.61       3.97
C       9.45      16.83       4.47
C       6.46      17.98       2.36
C      18.46      11.23       0.96
H       7.16      15.48       1.65
C      17.34      11.62       1.89
C      17.22      10.98       3.13
C      15.25      12.28       3.64
C      15.35      12.92       2.40
C      16.40      12.59       1.54
C      13.36      13.60       4.27
C      11.59      12.54       5.69
C       9.67      12.01       7.09
C       8.82      12.50       8.08
C       7.80      11.70       8.57
C       7.60      10.40       8.08
C       8.44       9.93       7.06
C       9.49      10.72       6.56
C       6.50       9.55       8.66
C      16.19      11.31       4.01
H       8.22      18.62       4.36
