16

C       6.47      -5.20      11.28
C       7.29      -5.79      10.29
C       6.89      -6.96       9.61
C       5.67      -7.48       9.97
C       4.83      -6.90      10.97
C       5.23      -5.75      11.64
C       3.52      -7.56      11.29
N       8.41      -5.01      10.18
H       5.31      -8.39       9.47
N       7.13      -4.09      11.72
H       2.94      -6.98      12.02
H       3.67      -8.57      11.71
H       2.91      -7.68      10.39
H       4.63      -5.30      12.42
N       8.28      -4.01      11.05
H       7.52      -7.40       8.85
