13

C       7.87       5.96       5.97
C       6.98       6.90       5.16
C       5.01       5.96       2.20
C       5.90       6.90       3.00
H       6.18       7.28       5.82
H       7.58       7.74       4.79
O       7.83       4.73       5.72
O       8.58       6.55       6.85
H       6.70       7.28       2.35
H       5.30       7.75       3.37
O       5.05       4.73       2.45
O       4.30       6.55       1.31
O       6.44       6.15       4.08
