10

C       5.65       5.59       3.34
C       5.60       5.52       1.90
C       5.48       5.36      -1.90
C       5.56       5.47       0.67
C       5.52       5.41      -0.67
C       5.44       5.29      -3.34
O       4.52       5.65       3.93
O       6.56       5.24      -3.93
O       4.28       5.30      -3.87
O       6.80       5.59       3.87
