38

C      10.14       4.98      17.22
C      10.81       3.66      17.47
H       9.09       2.58      16.95
C      10.54       1.24      17.59
C      10.25       0.19      16.71
H      11.78      -3.30      17.56
C      11.29       0.97      18.75
C      11.75      -0.31      19.02
C      10.71      -1.10      16.98
C      11.46      -1.36      18.13
C      12.32      -3.26      19.51
C      12.65      -4.71      19.35
C      11.69      -5.64      18.94
C      13.95      -5.16      19.64
C      12.06      -6.98      18.83
C      14.24      -6.51      19.48
N       9.10       7.57      17.10
N      10.05       2.53      17.31
N      11.90      -2.67      18.35
N      13.31      -7.41      19.09
H       7.21       6.70      17.14
H      11.05       8.26      17.02
H       8.03       4.38      17.24
H      12.06       5.95      17.10
H      11.35      -7.74      18.50
H       9.66       0.38      15.81
H      11.52       1.78      19.43
H      12.32      -0.52      19.92
H      10.44      -1.92      16.31
C       8.28       6.50      17.13
O      12.42      -2.69      20.60
H      10.67      -5.33      18.70
H      15.24      -6.89      19.66
O      11.99       3.64      17.84
C      10.43       7.36      17.05
H      14.72      -4.45      19.93
C       8.75       5.19      17.19
C      10.98       6.09      17.10
