26

O       1.09      16.89      10.44
H       2.75      14.09       5.77
H       2.75      10.54       8.45
H       1.13      10.25       3.76
H       1.17      12.46       4.91
H       1.14      14.38      10.46
H       1.17      12.17       9.31
O       2.95      17.55       9.34
O       1.08       7.74       3.78
F       2.88      16.42       6.81
O       2.95       7.08       4.88
F       2.88       8.21       7.41
C       2.01      16.73       9.57
C       2.01       7.90       4.65
C       1.99      15.45       8.81
C       1.98       9.18       5.41
C       2.43      15.33       7.49
C       2.40      14.12       6.80
C       2.43       9.30       6.73
C       2.40      10.51       7.42
C       1.51      10.34       4.78
C       1.53      11.57       5.43
C       1.51      14.29       9.44
C       1.53      13.06       8.79
C       1.97      12.96       7.46
C       1.97      11.67       6.76
