30

C      13.58       8.26       2.35
N      11.58       9.55      10.82
N      14.52       9.87       6.81
O      11.21       7.80      12.79
H      14.24      10.00       4.21
O      12.22       5.79      12.71
H      12.67       6.02       3.71
H      12.45       5.82       6.18
O      13.31       9.43       1.90
O      14.06       7.32       1.64
H      11.17      10.25      10.22
H      11.14       9.35      11.71
H      14.38       9.87       7.81
H      14.70      10.78       6.40
F      12.01       9.74       8.23
F      14.14       5.47       8.11
F      13.66       5.15      10.67
C      12.52       7.27      10.88
C      12.18       8.49      10.21
C      12.47       8.59       8.83
C      13.08       7.62       8.06
C      13.46       6.45       8.76
C      13.21       6.29      10.11
C      13.88       8.93       6.04
C      11.98       6.94      12.20
C      13.86       9.08       4.65
C      12.97       6.83       4.36
C      12.88       6.72       5.74
C      13.29       7.76       6.60
C      13.42       8.05       3.81
