30

H       6.12       2.54       4.36
C       6.32      -1.34       6.96
N       5.20       0.71       7.65
H       4.85       3.71       6.12
C       6.98      -1.65       8.15
H       7.26      -8.60       6.73
H       4.27       2.46       8.24
C       7.41      -2.95       8.40
H       6.57      -6.33       6.11
C       7.60      -7.75       7.31
C       5.90       0.05       6.69
H       8.87      -4.87       9.48
C       7.21      -6.46       6.98
C       6.24       0.68       5.49
H       9.48      -7.22       9.94
C       7.62      -5.36       7.76
C       5.87       2.01       5.28
H       6.30      -4.43       5.53
C       8.47      -5.66       8.84
C       5.16       2.68       6.28
H       5.56      -2.13       5.10
C       8.82      -6.97       9.11
C       4.85       1.99       7.44
H       7.19      -0.87       8.89
C       7.18      -3.98       7.47
H       7.92      -3.14       9.34
C       6.50      -3.66       6.28
H       6.84       0.14       4.76
C       6.09      -2.36       6.02
N       8.38      -8.01       8.38
