15

N      39.35      23.61      13.39
N      39.60      24.02      12.15
C      39.51      25.60       9.67
H      39.86      26.10       7.59
C      38.97      26.06      10.88
C      39.48      26.43       8.56
H      39.94      24.60       9.60
C      38.97      25.22      12.07
N      38.97      27.68       8.59
C      38.44      27.36      10.91
C      38.47      28.13       9.75
H      38.01      27.75      11.83
N      38.60      24.51      14.02
N      38.35      25.54      13.22
H      38.09      29.15       9.75
