14

H      16.78      14.68      10.53
H      18.25      17.36      10.89
C      16.43      17.19       9.72
C      20.69      14.71      13.06
H      18.44      13.71      12.07
H      19.98      16.37      11.85
O      20.50      13.49      13.39
C      17.57      15.33      10.90
C      17.51      16.64      10.56
C      18.60      14.74      11.74
C      19.72      15.35      12.15
O      16.59      18.43       9.39
O      21.66      15.46      13.45
O      15.45      16.44       9.41
