9

H       3.95       1.06       5.64
H       4.54       0.69       3.18
O       2.86       1.73       2.68
O       4.89       2.77       4.88
O       2.55       3.91       5.36
O       1.46       1.92       5.47
C       3.78       1.88       4.92
C       2.48       2.62       5.29
C       3.70       1.35       3.47
