16

O      14.52      18.48      26.21
O      13.47      16.44      26.11
C       7.96      20.46      30.63
C      11.31      17.58      27.71
C      10.22      20.54      29.39
C      12.47      18.20      27.28
C       9.05      19.92      29.82
C      11.05      19.70      28.62
C      10.48      18.42      28.48
O       7.01      19.65      30.90
O       8.06      21.68      30.99
F      10.97      16.31      27.43
F      10.55      21.81      29.67
S       8.96      18.27      29.28
S      12.56      19.86      27.83
C      13.57      17.66      26.47
