16

O      -1.30      27.13      11.05
O      -2.63      28.09      12.59
C      -0.80      26.76      13.36
C       0.80      25.59      15.49
Cl      -2.43      27.95      15.24
C      -1.10      26.98      14.73
C      -0.32      26.41      15.77
C       0.32      25.94      13.08
C       1.11      25.37      14.12
Cl       0.82      25.57      11.48
Cl      -0.82      26.77      17.37
O       2.63      24.25      16.26
O       1.30      25.22      17.80
Cl       2.43      24.40      13.61
C      -1.64      27.37      12.25
C       1.64      24.97      16.60
