46

C      12.61      10.60       6.96
C      11.10      12.61       7.48
H      12.13       9.60       5.07
C      10.20      10.24       7.42
C      10.83      12.75       5.94
C       9.97      11.34       2.74
C      11.42      11.12       7.83
C      12.27      10.62       5.46
C      10.92      11.36       5.23
S      13.71      11.12       4.44
S       8.73      10.29       8.51
H      10.16      12.87       7.99
S      12.12      13.84       8.44
H      10.49       9.20       7.60
S      11.66      14.17       5.09
H       9.81       9.48       5.41
H      14.35      12.97       5.33
H       8.88      10.93       5.81
H      12.85       9.58       7.28
H      13.47      11.23       7.18
O       9.38      12.59       0.88
O      11.64       8.76      11.95
H      14.20      14.19       7.87
H      12.21      13.18       3.29
O      14.46       9.92       4.21
H       9.79      13.08       5.82
O      13.26      11.89       3.29
O      14.61      12.00       5.37
H       6.80      11.14       8.17
O      11.87      15.16       7.91
O      11.80      13.56       9.81
O      13.61      13.42       8.16
C      10.48      11.38       3.84
C      11.76      10.83       9.22
O      10.79      15.29       5.33
O      13.06      14.21       5.44
O      11.53      13.88       3.55
C      11.98      10.37      10.32
C       9.29      11.46       1.47
O       8.11       8.99       8.39
O       9.03      10.86       9.79
O       7.73      11.34       7.74
C      12.26       9.83      11.62
O       8.61      10.46       1.07
O      13.13      10.44      12.33
C       9.85      10.45       5.93
