36

N       7.36      -1.50      17.51
N      14.94      -6.55      14.36
N      12.50       1.89      10.22
N      11.52      -2.95      15.09
N      12.72      -2.19      13.18
N      10.95      -0.87      14.08
C       7.95      -0.40      17.01
C       9.06      -0.47      16.18
H       7.50       0.55      17.30
C       8.97      -2.87      16.39
C       7.85      -2.72      17.19
H       7.31      -3.57      17.61
C      15.03      -5.71      13.31
H      14.34      -3.90      12.36
C      13.38      -4.25      14.26
C      14.26      -4.55      13.22
C      14.09      -6.26      15.36
C      12.50      -3.06      14.18
C      13.30      -5.12      15.36
C      11.78       1.26      12.41
H      12.62      -4.90      16.18
H      14.06      -6.98      16.18
H      11.68       3.25      11.54
H      13.30       0.42       9.00
H      11.32       1.54      13.36
H      13.10      -1.39      10.75
C      11.97       2.21      11.41
C      11.95      -1.10      13.21
C      12.18      -0.06      12.18
C      12.77      -0.37      10.95
C      12.90       0.62       9.99
C       9.58      -1.73      15.86
H       9.52       0.43      15.78
H       9.36      -3.86      16.15
C      10.75      -1.86      14.97
H      15.74      -5.98      12.53
