47

C      12.81       1.96       2.87
N      15.86       2.54       7.34
N      13.63       4.33       6.00
N      12.37       2.16       6.00
C      13.61       5.78       1.09
C      13.35       4.44       1.71
C      14.02       4.05       2.87
O      13.13       5.97      12.08
O      14.28       6.62      10.23
O      10.71       1.78      -0.07
O      10.72       0.45       1.77
H      13.13       4.68       6.83
H      14.77       4.71       8.69
H      11.83       2.42       5.18
H      12.62       0.98       3.31
O      13.13       5.97      -0.08
O      14.28       6.62       1.77
C      12.14       2.35      10.29
C      12.81       1.96       9.13
C      11.11       1.45      10.91
H      13.13       4.68       5.18
H      14.77       4.71       3.31
C      15.70       0.83       6.00
C      16.44       2.12       6.00
O      10.71       1.78      12.08
O      10.72       0.45      10.23
H      11.83       2.42       6.83
H      12.62       0.98       8.69
C      12.41       3.59      10.88
C      13.74       2.82       8.54
C      14.42       2.43       7.26
C      12.41       3.59       1.13
C      13.74       2.82       3.46
C      14.42       2.43       4.75
H      16.16      -0.16       6.00
H      17.53       2.22       6.00
H      11.88       3.89      11.78
H      11.88       3.89       0.22
C      13.66       2.87       6.00
N      15.04       1.12       7.34
N      15.86       2.54       4.67
N      15.04       1.12       4.67
C      13.61       5.78      10.91
C      13.35       4.44      10.29
C      14.02       4.05       9.13
C      11.11       1.45       1.09
C      12.14       2.35       1.71
