46

H       6.93      -0.03       8.03
H       9.33      -0.22       9.93
H       4.83       5.22       9.26
H       4.33       3.73       9.90
H       5.20       0.73       9.52
H       4.35       2.01       8.79
H       9.64       5.74       9.20
H      10.56       4.45       8.55
H      10.20       1.18       8.60
H      10.84       2.65       9.15
H       5.92      -1.54       8.37
H       5.43      -3.01       9.04
H       6.55      -5.99       8.70
H       5.84      -4.71       7.88
H      10.94      -0.95       8.76
H      11.81      -2.37       8.59
H      11.39      -5.56       9.05
H      11.90      -4.09       9.74
C       7.19       6.05       9.02
C       8.99      -6.35       8.94
C       7.34       4.58       9.08
C       8.64       3.98       9.11
C       8.78       2.58       9.09
C       7.64       1.75       8.95
C       6.36       2.34       8.97
C       6.19       3.74       9.08
C       7.70       0.31       8.72
C       8.58      -0.59       9.24
C       9.87      -2.66       9.03
C       8.60      -2.03       9.03
C       7.44      -2.85       8.92
C       7.57      -4.25       8.84
C       8.85      -4.87       8.93
C      10.01      -4.06       9.01
N       4.88       4.21       9.18
N       5.23       1.51       8.86
N       9.82       4.73       9.19
N      10.06       2.01       9.17
N       6.15      -2.30       9.00
N       6.36      -4.98       8.71
N      11.06      -1.90       9.09
N      11.32      -4.54       9.04
O       6.05       6.55       8.70
O       8.21       6.80       9.26
O      10.11      -6.87       8.61
O       7.98      -7.07       9.29
