16

O       6.14       8.06       1.48
O       3.91       8.32       1.14
C       4.81      11.36       5.03
C       4.95       9.54       2.89
C       3.76      11.28       4.10
H       6.90       9.02       3.65
H       3.01      10.30       2.33
H       6.76      10.65       5.55
C       4.81      12.24       6.24
C       6.02       9.65       3.79
C       3.82      10.36       3.05
C       5.94      10.55       4.84
C       5.00       8.57       1.76
Cl       2.38      12.32       4.15
O       5.95      12.64       6.64
O       3.69      12.48       6.80
