16

C       3.80       2.89       5.80
C       4.88       2.50       2.37
S       2.55       3.67       3.64
C       6.03       1.87       2.81
C       4.06       2.87       3.45
S       6.13       1.73       4.55
C       4.61       2.52       4.70
C       2.63       3.53       5.37
C       1.53       4.07       6.17
O       0.57       4.61       5.50
O       1.60       3.97       7.43
O       7.02       1.47       0.73
O       8.09       0.78       2.63
Cl       4.26       2.57       7.41
H       4.68       2.66       1.31
C       7.13       1.33       1.99
