38

Br       8.83       5.04       6.67
Br      17.45       3.08       6.41
Br      17.53       6.19       5.58
H       9.10      10.01       6.46
Br      13.51      -0.65       4.83
N      10.47      11.54       8.96
H      16.77       1.03       8.38
N       9.45      11.35       8.07
H      13.69       9.41       7.03
H       9.84       7.48       7.12
H      10.75       2.85       6.43
H      12.74       1.52       6.53
H      15.68       8.10       6.34
N      16.19      -0.90       7.76
N      15.31      -1.39       6.82
C      15.25       0.89       6.74
C      11.40      10.61       8.70
C       9.78      10.32       7.25
C      16.16       0.44       7.71
C      11.03       9.80       7.61
C      13.08       8.51       6.95
C      11.69       8.58       7.14
C      10.92       7.43       6.97
C      11.50       6.19       6.69
C      12.92       6.09       6.57
C      13.70       7.28       6.66
C      10.73       4.97       6.59
C      11.34       3.76       6.47
C      12.77       3.66       6.42
C      13.58       4.83       6.42
C      15.02       4.72       6.31
C      15.72       5.98       6.19
C      15.09       7.18       6.41
C      13.37       2.40       6.45
C      14.76       2.25       6.49
C      15.57       3.40       6.38
C      14.75      -0.33       6.22
Br      12.82      10.32       9.89
