30

N      14.12      21.91      15.92
H      12.71      23.79      18.13
Cl       9.96      23.80      17.78
H       5.49      24.52      19.39
H       6.59      21.00      17.13
F      12.89      19.96      15.67
H       6.94      18.94      19.55
H       7.57      22.58      21.78
H       9.63      18.30      18.82
H       8.21      23.57      19.66
H      11.65      19.21      17.72
C       7.15      20.71      20.78
C      12.94      22.98      17.45
C      11.02      21.27      17.82
C       9.73      19.37      18.67
C      10.85      19.89      18.03
C       9.94      22.11      18.22
C       8.85      21.63      18.94
C       8.75      20.23      19.18
C       5.56      23.68      18.71
C       6.11      21.87      17.57
C       7.52      19.80      19.89
C       7.38      22.01      20.87
C       7.76      22.58      19.50
C      13.07      21.15      16.26
C      12.25      21.77      17.23
N      14.04      23.05      16.67
N       4.55      23.40      17.86
C       6.58      22.73      18.57
N       4.90      22.28      17.14
