27

N       7.11      10.30      10.74
H       5.76      11.83      10.27
N       4.00       2.25      11.26
H       3.82      10.33       9.98
H       6.42       7.00      10.87
H       8.28       8.65      11.18
H       3.08       7.92       9.54
H       4.17       6.57       9.99
H       1.29       6.21      10.65
H       1.21       5.97      12.43
H       2.81       4.70       9.27
H       4.07       2.54       9.22
H       3.85       2.16      13.33
H       2.59       4.31      13.57
C       5.88      10.75      10.41
C       4.79       9.91      10.24
C       4.96       8.53      10.40
C       6.24       8.07      10.73
C       7.27       8.98      10.89
C       3.82       7.57      10.27
C       1.87       5.98      11.56
C       2.61       4.69      11.43
C       3.04       4.18      10.20
C       3.73       2.97      10.16
C       3.59       2.75      12.45
C       2.89       3.94      12.58
S       2.95       7.43      11.89
