14

C      14.12       6.73       9.48
C      15.51       6.73       9.48
H      16.07       5.81       9.36
H      13.57       5.81       9.36
H      16.07      10.10       9.92
N      10.85       7.93       9.67
N      18.78       7.93       9.67
C      12.01       7.94       9.65
H      13.57      10.10       9.92
C      14.12       9.17       9.79
C      16.20       7.95       9.64
C      13.43       7.95       9.64
C      17.62       7.94       9.65
C      15.51       9.17       9.79
