16

C       1.99       6.82       7.70
C       1.99      13.37       3.95
C       1.94       8.31       5.62
C       1.94      11.87       6.03
C       1.97       8.11       6.98
C       1.97      12.07       4.67
C       2.00      10.50       6.39
C       2.00       9.68       5.26
S       2.05       9.61       7.86
S       2.05      10.57       3.79
O       2.93       6.64       8.55
O       1.07       5.98       7.43
O       2.93      13.54       3.10
O       1.07      14.20       4.22
F       1.91       7.31       4.71
F       1.91      12.87       6.94
