25

O       1.52       7.20      16.70
H       0.31       9.67      12.77
H       5.71       9.07      14.89
H       0.48       8.41      14.92
H       5.64       7.51      14.01
H       5.72       9.39      10.79
H       5.45       7.11      10.19
H       3.87       7.69      10.80
H       4.95       6.73      11.84
H       5.53      10.34      12.78
C       2.33      10.48      11.14
C       3.61       9.34      12.96
C       2.40       9.75      12.43
C       1.27       9.41      13.18
C       1.37       8.70      14.37
C       2.60       8.28      14.90
C       3.71       8.62      14.15
C       5.21       8.52      14.08
C       5.11       9.33      12.71
C       2.64       7.49      16.16
C       4.93       7.51      11.07
N       5.64       8.69      11.53
O       3.46      10.76      10.61
O       1.18      10.74      10.66
O       3.80       7.17      16.61
