15

H       8.02      13.43      14.13
H       6.60      12.63      12.19
C       6.91      10.27      10.89
C       7.64      10.73      12.06
C       8.66       9.96      12.64
C       9.37      10.47      13.71
C       8.14      12.44      13.69
C       7.38      12.00      12.61
N       6.30       9.08       9.26
N       5.61      10.23       9.24
N       5.97      11.00      10.25
N       7.12       9.07      10.29
N       9.12      11.69      14.22
H       8.89       8.97      12.23
H      10.19       9.91      14.16
