26

C      13.13       3.31      15.61
C      12.22       4.10      14.68
C      11.38       5.08      15.22
C      10.57       5.84      14.38
C      10.61       5.62      13.00
C      11.44       4.65      12.44
C      12.23       3.88      13.30
C      11.33       8.50      12.34
C      10.11       7.79      11.88
C       8.67       6.16      11.49
C       8.02       4.83      11.47
H      11.40       5.24      16.30
H       9.91       6.61      14.78
H      11.47       4.52      11.36
H      12.89       3.12      12.89
H      12.17       7.80      12.44
H      11.19       8.99      13.31
H      11.59       9.25      11.58
H       7.11       4.90      10.88
H       7.78       4.50      12.49
H       8.69       4.09      11.01
N       9.16       8.29      11.11
N       8.27       7.27      10.87
N       9.83       6.47      12.15
O      13.66       2.28      15.02
O      13.31       3.68      16.78
