30

H      11.65       4.20       8.98
H       7.35       0.38       7.82
H      10.33       0.02       7.13
H      11.58       1.89       8.00
H       6.36      -1.44       8.86
H       9.97      -2.13       6.60
H       7.43       2.46       7.00
C       8.39       4.09       8.02
H       7.52       4.74       8.01
H      10.01      -4.49       7.42
C       9.21      -3.81       7.71
H       6.37      -3.83       9.59
C       9.54       5.88       9.35
C       8.19      -1.61       7.72
C       8.35       2.83       7.46
C      10.69       2.52       8.00
C       7.14      -2.12       8.52
C      10.73       3.80       8.55
C       7.15      -3.45       8.94
C       9.39       0.55       7.30
C       8.26      -0.16       7.54
C       9.19      -2.49       7.27
C       9.48       1.98       7.52
C       8.32      -5.68       9.12
O      10.66       6.44       9.61
C       9.56       4.57       8.63
O       7.27      -6.26       9.55
O       8.39       6.34       9.65
O       9.50      -6.16       9.10
C       8.21      -4.29       8.57
