18

O       9.88       9.22      14.65
C       9.59       6.97      14.13
C       7.82       5.73      15.23
O       9.54       4.13      11.06
H       8.69       7.54      16.00
O       7.81       3.04      12.02
C      10.41       8.21      14.08
C       9.62       6.01      13.10
C       8.71       6.81      15.20
C       7.80       4.82      14.18
O       5.75       5.04      16.21
H       7.09       3.99      14.17
H      10.32       6.11      12.27
C       8.67       3.95      12.00
C       8.71       4.94      13.12
O       7.20       6.19      17.48
O      11.53       8.23      13.47
C       6.89       5.65      16.39
