16

O      -2.76       0.31       6.00
C      -2.92      -2.59       5.83
C      -4.19      -6.26       5.72
C      -3.97      -1.70       5.92
C      -3.38      -3.92       5.78
S      -5.54      -2.47       5.94
H      -1.88      -2.26       5.81
C      -4.79      -4.01       5.83
S      -2.64      -5.47       5.69
C      -5.23      -5.35       5.79
O      -5.38      -8.29       5.79
F      -6.53      -5.68       5.84
O      -3.10      -8.31       5.69
O      -5.05       0.36       6.09
C      -4.23      -7.72       5.72
C      -3.92      -0.24       6.01
