32

H       9.46       3.93      12.54
H       9.40       3.55      15.02
H      13.62       5.01      12.81
H       9.31       4.66      22.00
H      13.44       3.49      22.08
H      13.46       3.37      19.58
H      13.64       4.88      16.47
H      14.54       5.34      15.07
H       9.21       4.88      18.34
H       8.34       5.20      19.79
C      11.35       4.10      23.66
C      11.59       4.73      11.08
C      11.54       4.51      12.55
C      10.34       4.10      13.16
C      10.31       3.90      14.53
C      11.45       4.15      15.33
C      12.67       4.56      14.71
C      12.70       4.71      13.31
C      11.40       4.05      16.73
C      11.43       4.01      17.96
C      11.41       4.01      19.37
C      10.21       4.39      20.05
C      10.21       4.40      21.45
C      11.37       4.09      22.17
C      12.55       3.73      21.50
C      12.56       3.68      20.12
N      13.79       4.78      15.47
N       9.08       4.69      19.33
O      10.21       4.22      24.23
O      10.47       4.93      10.50
O      12.73       4.73      10.52
O      12.47       3.98      24.26
