38

C       2.80       3.91      12.56
C       1.95       3.78      11.45
C       2.10       4.62      10.34
H       4.70       6.52      11.44
H       3.20       6.26       9.48
C       4.56       5.02      13.89
C       5.09       3.62      14.22
C       5.73       6.01      13.96
C       6.41       3.29      14.53
C       6.74       1.97      14.84
H       0.51       3.69      15.68
H       0.23       5.74      17.06
H       4.03       7.21      15.67
H       1.99       7.50      17.05
C       2.70       3.16      13.90
C       4.10       2.63      14.22
C       1.72       1.98      13.96
C       4.43       1.31      14.54
C       5.76       0.98      14.85
H       1.16       3.04      11.47
H       1.43       4.51       9.49
O       6.27       6.36      12.86
H       7.18       4.06      14.56
H       7.77       1.72      15.09
O       1.37       1.57      15.11
O       6.15       6.34      15.11
H       3.67       0.54      14.57
H       6.00      -0.05      15.10
O       1.38       1.44      12.86
C       3.80       4.91      12.55
C       3.94       5.75      11.44
C       3.09       5.60      10.34
C       2.43       4.29      14.91
C       1.29       4.45      15.69
C       1.14       5.60      16.47
C       3.43       5.29      14.91
C       3.27       6.44      15.68
C       2.12       6.59      16.47
