12

C      -2.56      10.11      13.00
C      -2.57      10.11       3.76
C      -2.57      10.11       5.20
C      -2.56      10.11      11.56
O      -3.68       9.84       3.20
C      -2.57      10.11       6.42
O      -1.44       9.90      13.56
C      -2.57      10.11       7.76
O      -3.69      10.32      13.56
C      -2.56      10.11      10.34
C      -2.56      10.11       9.00
O      -1.45      10.38       3.20
