19

C      14.12      19.17       4.20
N      17.01      19.48       6.52
H      10.61      17.95       7.85
C      13.33      18.98       6.47
H      17.72      19.38       5.80
C      12.27      18.77       7.47
H      17.25      18.92       7.35
O      14.93      19.42       2.00
O      12.72      19.06       2.27
C      15.70      19.33       6.05
O      11.10      18.30       7.02
H      14.80      19.24       8.02
H      12.07      18.73       4.71
O      12.46      18.96       8.69
C      14.63      19.19       6.95
H      16.23      19.51       3.96
C      13.07      18.94       5.09
C      15.42      19.35       4.68
C      13.90      19.21       2.71
