22

H       0.76       8.00       3.38
H      -0.28       5.67      -3.38
H      -1.36       7.58       2.15
H       1.85       6.09      -2.15
H       3.04       6.83      -0.07
H      -2.55       6.84       0.07
O       4.40       7.63       1.85
C       3.29       7.68       2.46
O       3.17       7.93       3.72
O      -2.69       5.74      -3.72
C       2.02       7.43       1.71
C       0.77       7.65       2.34
C      -1.53       6.24      -1.71
C      -0.41       7.41       1.66
C       0.89       6.26      -1.66
C      -0.39       6.94       0.32
C       0.87       6.73      -0.32
C       2.06       6.99       0.40
C      -1.58       6.68      -0.40
C      -0.28       6.02      -2.34
C      -2.81       5.99      -2.46
O      -3.91       6.04      -1.85
