32

O       5.25       6.56       5.57
O       4.21       8.40       6.19
H       0.95       4.65       7.94
H       1.18       2.97       6.31
H       4.74       3.90       5.57
H       3.73       2.66       6.35
H       3.35       4.03       8.22
H       4.65       5.05       7.61
H       1.97       5.79       3.97
H       3.73       5.58       4.02
H       2.15       7.31       5.72
H       0.46       4.11       5.16
H       0.50       5.85       6.73
C       2.60       8.28      10.36
C       1.28       3.98       5.88
C       3.78       3.73       6.09
C       3.68       4.61       7.35
C       2.61       7.40       9.22
C       2.63       4.06       5.11
C       1.24       5.07       6.97
C       2.63       5.73       7.14
C       2.88       6.49       5.80
C       2.81       5.52       4.61
C       2.62       6.65       8.26
C       2.65       3.16       3.98
C       2.68       2.40       3.03
C       2.70       1.51       1.90
N       4.22       7.22       5.85
O       1.46       8.62      10.82
O       3.74       8.63      10.82
O       1.57       1.15       1.44
O       3.84       1.16       1.46
