36

H       5.56       9.31      18.79
H       3.07       9.31      18.79
C       3.61       9.98      18.13
C       5.00       9.98      18.13
C       3.61      11.66      16.39
C       2.89      10.82      17.26
H       1.24      10.82      19.41
H      -5.56      12.33      18.79
C       1.42      10.82      17.26
H      -5.56       9.31      15.73
H      -3.07      12.33      18.79
H      -1.24      10.82      15.10
C      -5.71      10.82      17.26
C      -5.00      11.67      18.13
C      -3.61      11.66      18.13
C      -5.00       9.98      16.39
C      -3.61       9.98      16.39
C      -0.70      10.81      16.05
C      -2.89      10.82      17.26
C      -1.42      10.82      17.26
C      -0.70      10.83      18.46
C       5.71      10.82      17.26
H       5.56      12.33      15.73
H       3.07      12.33      15.72
C       5.00      11.67      16.39
H       1.24      10.82      15.10
C       7.20      10.82      17.26
C      -7.20      10.82      17.26
O       7.78      11.63      16.45
O       7.78      10.01      18.06
O      -7.78      10.01      16.45
O      -7.78      11.63      18.06
C       0.70      10.83      16.05
C       0.70      10.81      18.46
H      -3.07       9.31      15.72
H      -1.24      10.82      19.41
