20

C       1.09       6.40       5.49
C      -1.86       6.04       4.99
H       0.61       5.90       6.33
H      -1.37       5.08       5.17
C       2.48       6.36       5.38
C      -3.24       6.13       5.06
H       3.10       5.85       6.12
H      -3.87       5.27       5.29
C       1.05       7.73       3.49
C      -1.81       8.37       4.41
H       0.51       8.26       2.71
H      -1.28       9.29       4.17
C       2.43       7.62       3.43
C      -3.20       8.39       4.53
H       3.02       8.07       2.63
H      -3.78       9.30       4.38
N       3.13       6.95       4.37
N      -3.90       7.29       4.84
C       0.35       7.10       4.54
C      -1.12       7.18       4.64
