16

H       4.81      12.18       7.68
Cl       4.24       9.55       6.95
Cl       6.79      11.92      12.15
C       5.12      11.54       8.50
C       4.97      10.16       8.40
C       5.36       9.33       9.46
C       5.65      12.14       9.65
O       5.58       7.22       8.38
C       5.26       7.83       9.45
C       5.74      13.65       9.65
H       6.21       9.29      11.43
O       6.01      14.19       8.53
C       5.89       9.93      10.60
C       6.05      11.31      10.71
O       5.50      14.25      10.74
O       4.91       7.29      10.55
