16

C      15.33       3.45      18.53
C      19.18       5.86      22.17
F      15.12       6.20      19.56
O      20.16       5.12      22.52
O      18.96       7.06      22.52
H      19.21       3.35      21.12
H      16.95       7.02      21.14
H      17.52       2.35      19.55
C      16.30       4.10      19.47
C      18.18       5.24      21.23
C      16.16       5.42      19.94
C      18.35       3.92      20.78
C      17.09       5.99      20.80
C      17.42       3.37      19.91
O      14.33       4.15      18.15
O      15.58       2.25      18.19
