48

H       4.23      17.74      13.93
H       2.94      15.38      19.61
H       0.93      15.05      14.20
H      -0.03      14.91      16.52
H       3.61      16.60      18.09
H       4.53      16.78      15.83
H       5.01      19.48      12.59
H       6.25      18.58       8.58
H       4.60      15.46      11.01
H      -0.49      15.14      21.08
H       1.17      14.19      24.94
H       3.81      15.04      21.65
C       2.77      15.94      14.85
C       1.50      15.39      15.06
C       0.97      15.30      16.34
C       1.73      15.71      17.45
C       3.01      16.25      17.25
C       3.52      16.37      15.96
C       3.27      16.03      13.46
C       1.08      15.54      18.80
C       4.72      17.41      11.95
C       5.14      18.74      11.80
C       5.72      19.15      10.60
C       5.83      18.26       9.53
C       5.40      16.94       9.69
C       4.88      16.50      10.91
C       6.18      20.57      10.46
C       5.44      16.00       8.54
C       1.68      15.11      21.20
C       0.38      14.99      21.72
C       0.22      14.66      23.07
C       1.33      14.45      23.89
C       2.62      14.60      23.38
C       2.79      14.93      22.03
C      -1.14      14.53      23.66
C       3.80      14.39      24.26
N       4.13      17.05      13.19
N       1.95      15.40      19.85
O       2.89      15.20      12.59
O      -0.16      15.50      18.90
O       5.84      21.37      11.38
O       6.89      20.85       9.43
O       5.82      16.37       7.40
O       5.08      14.76       8.72
O      -2.19      14.69      22.93
O      -1.27      14.26      24.90
O       3.57      13.91      25.42
O       4.95      14.70      23.80
