70

H       3.21      15.27       8.71
H       3.89      21.52       7.92
H       6.63      15.33      11.37
H       3.75      19.58       8.09
H       6.23      17.27      11.69
H       3.69      17.16       8.21
H       6.36      19.68      11.52
H       8.23      24.38      10.87
H       8.00      23.20      12.20
H       7.59      26.22      12.45
H       7.58      25.06      13.79
H      10.06      24.56      13.31
H       9.78      26.26      13.72
H      10.02      25.79      12.03
H       3.01      13.53       6.86
H       1.65      13.78       8.00
H       2.44      11.03       6.92
H       0.96      11.43       7.79
H       0.24      12.92       5.83
H       0.45      11.23       5.36
H       1.70      12.41       4.96
H       1.99      24.72       7.22
H       2.11      23.05       7.82
H       3.36      24.06       5.20
H       3.28      22.37       5.71
H       0.71      22.52       5.62
H       1.45      22.86       4.05
H       0.86      24.19       5.06
H       7.22      12.17      13.34
H       6.57      13.82      13.17
H       9.28      12.87      12.08
H       8.71      14.54      12.05
H       8.70      14.55      14.61
H      10.31      14.16      13.96
H       9.28      12.87      14.59
H       6.36      21.63      11.49
C       5.76      23.48      10.61
C       4.05      13.39       9.32
C       5.81      22.09      10.66
C       3.99      14.78       9.29
C       5.11      21.33       9.72
C       4.92      15.52      10.03
C       4.42      22.04       8.71
C       5.85      14.82      10.81
C       4.43      23.43       8.72
C       5.85      13.42      10.79
C       4.31      19.09       8.88
C       5.70      17.76      10.88
C       4.27      17.70       8.96
C       5.76      19.15      10.79
C       4.96      17.00       9.97
C       5.07      19.85       9.79
C       7.72      24.20      11.82
C       8.05      25.30      12.82
C       9.56      25.48      12.98
C       2.38      13.04       7.62
C       1.68      11.82       7.05
C       0.98      12.12       5.73
C       2.59      23.81       7.19
C       2.74      23.34       5.75
C       1.37      23.22       5.08
C       7.25      13.08      12.72
C       8.68      13.60      12.63
C       9.27      13.81      14.02
N       5.08      24.15       9.66
N       4.98      12.71      10.04
O       3.21      12.57       8.69
O       3.85      24.20       7.78
O       6.72      12.65      11.45
O       6.29      24.26      11.58
