19

H       2.73      -0.05       8.35
C       9.61      -1.83       7.96
C       8.91      -2.52       8.98
C       9.70      -3.67       9.21
C       1.55      -1.45       8.86
N      10.70      -2.54       7.62
H       1.92      -4.29      10.46
N      10.76      -3.66       8.38
H       9.37      -0.89       7.49
H       9.53      -4.48       9.91
N       0.33      -1.98       8.82
C       1.64      -3.39       9.91
C       2.46      -2.30       9.54
N       0.39      -3.21       9.48
O       1.78      -0.25       8.27
C       7.61      -2.24       9.44
C       6.41      -2.10       9.64
C       5.06      -2.06       9.73
C       3.84      -2.13       9.68
