27

H      11.55       5.20       7.34
Cl      13.64       4.27       5.45
H      13.56       8.61       4.92
H      13.85       9.10       6.59
H      13.43       7.31       8.41
H      11.28       5.34       4.90
H      11.63       6.89       4.12
H      13.87       6.27       4.26
Cl      11.45       9.47       7.67
H      13.76       5.61       8.03
O      11.01       6.56       8.71
O       9.07       8.05       6.28
O       9.21       5.79       6.12
H      11.05       7.52       8.85
O      15.90       7.96       7.08
O      16.01       6.06       5.85
H      11.30       9.01       5.39
C       9.71       6.96       6.22
C      13.85       6.96       6.32
C      13.26       6.52       7.67
C      15.38       7.01       6.42
C      11.80       8.45       6.19
C      13.32       8.37       5.97
C      11.74       6.26       7.53
C      11.82       6.29       5.03
C      11.23       7.03       6.26
C      13.33       6.05       5.19
