9

C       8.27       2.21      12.96
H       8.18       1.59      12.06
H       8.11       3.82      16.80
N       7.97       1.79      14.21
N       8.68       3.91      14.25
N       8.09       2.90      16.33
C       8.23       2.88      15.00
H       7.64       2.11      16.79
N       8.69       3.46      12.93
