28

C       6.58      22.30      10.54
H       5.25      14.81       3.35
C       7.39      14.81       3.15
H       8.65      18.92       8.05
C       6.55      21.16       9.57
H       9.53      16.62       5.11
C       7.37      13.86       2.00
N       7.51      17.60       6.30
C       6.18      15.22       3.74
H       4.41      19.41       7.56
C       7.74      20.49       9.24
N       6.41      18.08       6.71
H       9.53      14.98       3.19
C       6.17      16.12       4.80
H       4.43      21.29       9.24
O       6.22      13.51       1.55
C       7.74      19.45       8.32
O       7.72      22.71      10.92
C       7.39      16.64       5.28
O       8.49      13.46       1.55
C       6.53      19.07       7.70
O       5.45      22.77      10.91
C       8.60      16.21       4.71
C       5.33      19.73       8.05
C       8.60      15.31       3.65
H       8.67      20.81       9.71
C       5.34      20.76       8.97
H       5.24      16.45       5.26
