32

C       1.40      12.18       4.22
H      -0.13      10.99       1.15
C       0.74      10.99       4.57
C       0.38      10.76       5.90
C       1.64      12.49       2.77
C      -0.28      14.07       2.22
C      -1.46      13.93       1.54
C      -0.40      12.02       1.39
N      -0.11       8.02       9.22
N       0.38      10.12       8.74
H       1.93       7.28       9.23
N       0.39      12.86       2.11
H       2.52       9.93       8.63
N      -1.52      12.64       1.03
H      -1.67       9.49       9.01
H       0.80      12.15       9.00
H      -0.84      11.77       8.43
H       1.65      13.58       7.31
C       1.26       8.13       9.10
H       2.26      14.02       4.97
C       1.58       9.43       8.81
H       0.48      10.27       3.80
C      -0.62       9.23       8.99
H      -0.14       9.84       6.16
C       0.23      11.50       8.32
H       2.35      13.32       2.64
C       0.68      11.70       6.89
H       2.05      11.62       2.23
C       1.38      12.86       6.54
H       0.14      14.90       2.78
C       1.73      13.10       5.22
H      -2.25      14.65       1.38
