28

H       8.37       5.92       2.22
C       8.50       6.24       7.58
C       7.21       5.86       7.83
C       9.15       6.71       6.38
C       8.74       6.60       5.09
H       9.22       6.03       8.38
H      10.19       7.02       6.53
H       7.73       6.25       4.86
C      11.00       6.99       3.88
H       5.03       3.93       8.35
C       8.76       5.55      10.79
C       6.09       6.15       6.86
H      11.66       7.38       4.64
C       5.81       4.13       9.07
H       9.70       5.17      10.37
H       8.72       6.63      10.60
H       8.80       5.39      11.88
H       5.13       6.27       7.40
H       6.28       7.06       6.29
H       5.95       5.32       6.14
N      11.47       6.70       2.65
N       5.87       3.44      10.22
N       6.95       3.89      10.93
N      10.44       6.25       1.89
C       7.57       4.86      10.22
C       9.32       6.25       2.63
C       6.88       5.05       8.99
C       9.62       6.70       3.94
