13

H      16.09       8.99       2.35
H      15.80      10.44       3.38
O      14.26      10.71       1.32
O      13.06       9.15       2.45
H      15.83       9.44       5.82
H      16.94       8.46       4.79
C      14.11       9.80       2.20
C      15.36       9.50       3.00
O      14.45       6.73       5.72
O      16.40       7.00       6.85
O      14.99       8.65       4.08
C      15.54       7.32       5.97
C      15.91       8.55       5.16
