32

H       6.01       6.68       4.65
H       5.88       6.57       2.19
H       5.86      10.91       2.10
H       5.99      10.95       4.50
H       5.64       5.46      -2.11
H       5.63       9.80      -2.21
H       5.50       9.69      -4.66
H       5.52       5.42      -4.51
H       5.78      10.64       0.53
H       5.73       5.73      -0.54
C       6.08       8.87       6.23
C       5.43       7.48      -6.25
C       6.00       8.82       4.74
C       5.97       7.59       4.06
C       5.90       7.53       2.68
C       5.85       8.71       1.89
C       5.89       9.94       2.60
C       5.96       9.99       3.98
C       5.78       8.73       0.42
C       5.73       7.64      -0.43
C       5.62       6.43      -2.61
C       5.65       7.66      -1.90
C       5.61       8.84      -2.69
C       5.54       8.77      -4.08
C       5.51       7.55      -4.76
C       5.55       6.37      -4.00
O       6.12      10.03       6.77
O       6.11       7.76       6.85
O       5.40       6.32      -6.78
O       5.40       8.59      -6.88
O       5.74       9.97      -0.17
O       5.77       6.40       0.16
