52

H       2.86      33.97      15.94
H       1.43      34.28      16.93
H       1.27      33.39      15.40
H       1.36      31.04      14.31
H       2.91      30.20      14.43
H       2.85      31.99      14.46
H       1.51      30.80      21.14
H       2.86      31.92      20.96
H       3.15      30.17      20.92
H       3.25      28.09      19.36
N       2.41      28.67      16.13
H       1.67      27.69      18.67
H       1.77      28.62      20.18
N       1.88      27.57      16.49
H       1.07      25.19      18.20
H       2.67      25.96      18.18
H       2.54      24.20      18.10
H       2.87      22.29      16.49
H       1.45      21.96      15.48
H       1.25      22.76      17.05
H       2.81      28.37      13.25
H       1.38      25.54      11.42
H       2.83      24.55      11.56
O       3.03      34.32      18.97
H       2.95      26.32      11.66
H       1.27      28.57      14.07
H       1.34      27.70      12.51
O       1.17      33.61      20.04
O       1.24      22.71      12.41
C       2.16      22.89      13.28
C       2.12      33.45      19.19
C       2.16      32.18      18.41
C       2.27      30.96      19.11
C       2.23      29.75      18.40
C       2.26      29.79      16.98
C       2.25      31.03      16.29
C       2.12      32.23      17.01
C       2.04      25.21      16.26
C       2.03      26.47      15.61
C       2.05      26.57      14.19
C       2.16      25.38      13.44
C       2.13      24.14      14.09
C       2.04      24.04      15.50
O       3.10      22.05      13.51
C       1.91      33.53      16.29
C       2.35      31.07      14.79
C       2.45      30.96      20.61
C       2.22      28.46      19.19
C       2.08      25.14      17.76
C       1.90      22.69      16.16
C       1.85      27.87      13.47
C       2.34      25.45      11.95
