16

C       3.28       0.88       1.08
O       2.53      -2.33      -2.66
O       2.00       2.05       2.70
C       2.28      -0.76      -0.39
O       4.26       2.33       2.66
H       1.44      -1.37      -0.72
C       4.50       0.75       0.40
H       5.35       1.36       0.72
C       4.62      -0.12      -0.67
H       5.55      -0.22      -1.22
H       1.23       0.21       1.22
C       2.17       0.11       0.68
C       3.62      -1.82      -2.22
O       4.78      -2.05      -2.70
C       3.17       1.81       2.22
C       3.51      -0.88      -1.08
