26

O      19.16       7.61       5.75
O      16.94       7.74       5.43
O      16.64      13.18       9.86
O      18.83      13.49       9.42
C      18.02       8.11       5.95
C      17.74      12.87       9.31
C      18.70       9.12       8.33
C      16.36       9.75       7.19
C      16.31      10.90       8.29
C      18.82      10.53       9.09
C      18.65      10.60       6.14
C      18.34      11.97       6.92
C      17.93       9.36       6.91
C      17.79      11.59       8.41
Br      20.45       8.16       8.31
Br      15.13       8.23       7.68
Br      15.69      10.26      10.06
Br      18.64      10.39      11.07
Br      17.75       7.72       9.37
Br      20.59      10.27       5.91
Br      18.21      10.73       4.20
Br      17.03      13.16       6.03
Br      15.40      10.26       5.53
Br      19.89      13.23       6.75
Br      14.73      12.12       7.96
Br      20.69      11.20       9.10
