20

C      15.11       1.80       3.42
C      13.10       2.99       5.17
C      13.96       2.43       2.94
C      14.27       2.36       5.69
C      13.00       3.00       3.77
C      15.25       1.78       4.83
C      13.22       2.79       1.68
C      12.13       3.45       2.62
H      13.74       3.49       1.01
H      12.87       1.94       1.08
H      11.13       2.99       2.58
H      12.02       4.54       2.53
C      12.00       3.60       5.97
Cl      14.56       2.32       7.38
Cl      16.59       0.99       5.58
C      16.09       1.25       2.42
O      11.18       4.32       5.29
O      11.92       3.36       7.21
O      15.63       1.13       1.23
O      17.27       0.98       2.80
