12

O       2.33       6.70       4.18
O       4.47      12.84      -4.18
C       3.47       7.87       2.56
C       3.33      11.67      -2.56
C       3.45       8.60       1.57
C       3.36      10.94      -1.57
C       3.42       9.40       0.49
C       3.39      10.14      -0.49
C       3.48       7.03       3.73
C       3.33      12.51      -3.73
O       4.62       6.71       4.19
O       2.18      12.83      -4.19
