27

N       1.69       6.18       9.29
O      -3.11       3.08       7.08
O      -3.06       5.18       7.88
O       3.80       3.54       7.88
O       3.80       5.66       7.10
H       1.15       6.35      10.14
H       2.48       8.13       9.36
H       1.05       7.98       8.30
H       2.62       7.33       7.78
H       2.82       3.06       5.54
C      -2.51       4.06       7.63
C      -0.38       4.97       8.63
C       1.02       5.23       8.50
C       1.72       4.51       7.54
C       3.22       4.61       7.49
C      -0.60       1.69       6.79
C       1.97       7.48       8.64
C       0.12       0.99       5.81
C       1.32       1.55       5.29
C       1.84       2.70       5.85
C       1.11       3.43       6.83
C      -0.22       3.03       7.16
C      -1.03       3.97       7.91
I      -1.39       6.20      10.04
I      -1.83       0.60       8.11
I      -0.49      -0.92       5.18
I       2.48       0.64       3.78
