37

H       8.64       7.64      13.27
H       6.81       1.60       3.46
H       8.66       3.04      11.40
H       8.04       7.26      10.87
H       7.60       2.08       5.78
H       5.32       5.62       3.12
C       5.47       3.26       1.81
H       6.15       6.12       5.43
C       9.16       1.78      13.56
N       8.26       3.63       9.09
N       7.66       5.93       8.82
N       7.33       5.70       7.56
N       7.92       3.40       7.83
N       9.27       3.16      13.99
H       9.65       3.37      14.90
H       9.43       1.13      14.39
O      10.30       5.10      15.65
O       9.20       7.08      15.51
H       8.14       1.54      13.25
H       9.84       1.56      12.71
O       5.74       2.11       1.31
O       4.68       4.11       1.27
C       9.01       5.57      13.70
C       9.51       5.93      15.03
C       8.99       4.23      13.19
C       8.65       4.04      11.83
C       8.32       5.12      11.01
C       8.29       6.43      11.52
C       8.63       6.63      12.85
C       7.39       4.42       7.12
C       8.04       4.88       9.58
C       7.11       2.86       5.19
C       6.68       2.59       3.89
C       5.84       4.86       3.71
C       6.29       5.14       4.99
C       6.93       4.13       5.75
C       6.04       3.59       3.14
