44

C       3.46      11.05      18.41
C      12.95      11.43      11.98
O      10.71       8.62      13.03
H       1.49      10.68      19.25
C       4.67      11.70      18.65
C      11.74      10.78      11.75
H      14.93      11.81      11.15
H       3.31      10.46      17.52
C       4.84      12.46      19.81
C      11.58      10.03      10.59
H      13.11      12.03      12.88
H       5.77      12.98      20.01
C       3.78      12.53      20.70
H      10.65       9.50      10.39
C      12.64       9.95       9.70
H       3.84      13.11      21.63
C       6.23      10.27      17.45
C      10.19      12.21      12.95
H      12.58       9.38       8.77
C       7.26      10.16      16.39
H       7.40       8.04      16.62
H       9.02      14.45      13.78
C       9.16      12.33      14.01
C       7.72      11.31      15.71
H       7.27      14.69      15.59
H       9.14       7.79      14.81
C       8.70      11.17      14.69
C       7.22      12.60      16.02
C       9.20       9.88      14.38
C       6.18      12.77      17.06
C      10.23       9.71      13.34
C       7.77       8.90      16.07
C       8.65      13.58      14.33
C       7.68      13.72      15.33
C       8.73       8.77      15.06
N       2.61      11.89      20.49
N      13.80      10.59       9.91
N       5.73      11.58      17.69
C       2.46      11.17      19.36
N      10.68      10.90      12.71
O       5.81       9.32      18.09
O      10.60      13.17      12.31
O       5.71      13.86      17.37
C      13.96      11.31      11.04
