24

O       6.01       5.89      20.32
O       3.81       5.41      20.24
H       1.81       4.74      18.10
H       1.82       6.50      17.86
C       4.95       5.70      18.19
C       4.95       5.49      15.28
C       3.78       5.57      17.43
C       6.15       5.70      16.00
C       3.78       5.44      16.05
C       6.16       5.79      17.44
C       2.27       5.55      17.53
C       2.27       5.35      15.96
H       1.77       6.13      15.37
H       1.88       4.37      15.66
H       7.31       5.85      14.37
H       8.00       6.51      15.80
H       7.35       5.96      19.05
H       8.17       5.53      17.59
N       7.40       5.80      15.39
N       7.39       6.00      18.03
C       4.91       5.40      13.80
C       4.93       5.68      19.67
O       3.78       5.14      13.25
O       5.98       5.59      13.13
