14

O       1.82      12.55      15.37
O       4.07      12.81      15.19
C       1.89      10.84      13.14
C       2.95      11.59      13.52
C       1.71       9.94      12.02
H       1.03      10.96      13.80
C       2.70       9.40      11.27
H       3.74       9.63      11.48
C       2.94      12.39      14.79
H       0.68       9.64      11.80
Br       4.58      11.76      12.54
O       1.36       8.05       9.82
C       2.52       8.46      10.14
O       3.62       8.15       9.57
