42

H       1.69       3.53      12.08
H       1.79       2.00      10.15
C       4.88      -3.41      -0.09
C       3.78      -3.32       0.74
C       3.28      -2.05       1.13
C       3.92      -0.94       0.55
C       5.02      -1.11      -0.28
C       2.22      -1.91       2.14
C       1.52      -3.03       2.64
C       0.63      -2.91       3.70
C       0.40      -1.66       4.31
N       5.52      -2.32      -0.59
C       1.03      -0.53       3.75
H      -1.09      -2.40       5.55
C       1.92      -0.66       2.70
N      -0.45      -1.59       5.40
C      -0.39      -0.71       6.46
N      -0.38       3.61      12.16
C      -1.51      -0.64       7.33
C      -1.50       0.19       8.43
C      -0.38       0.99       8.75
C       0.74       0.89       7.90
H       5.31      -4.37      -0.36
C       0.74       0.07       6.78
H       3.36      -4.24       1.13
C      -0.37       1.87       9.92
H       3.62       0.08       0.78
C      -1.57       2.33      10.51
H       5.55      -0.25      -0.70
C      -1.53       3.19      11.61
H       1.68      -4.02       2.22
C       0.78       3.17      11.61
H       0.12      -3.80       4.09
C       0.82       2.33      10.52
H       0.82       0.46       4.16
H       2.43       0.24       2.36
H      -2.38      -1.26       7.11
H      -2.38       0.22       9.08
H       1.63       1.48       8.10
H       1.63       0.01       6.16
H      -2.54       2.06      10.10
H      -2.44       3.59      12.05
