33

B       6.93       3.30      33.71
H       6.90       0.59      34.74
H       9.21       4.08      35.35
H      10.16       2.03      36.98
H       4.05       3.57      34.07
H       4.10      -0.09      31.96
H       6.70       0.79      32.25
H       6.27       5.99      32.79
H       6.16       3.86      36.46
H       5.07       6.39      36.81
H       9.70       4.06      33.02
H       7.79       5.00      29.38
H       5.96       3.76      31.07
C       7.68       1.25      35.11
C       8.91       3.04      35.43
C       9.37       2.04      36.24
C       4.43       2.71      33.53
C       4.47       0.83      32.41
C       5.77       1.23      32.58
C       6.09       5.75      33.83
C       6.02       4.68      35.75
C       5.48       5.93      35.91
C       8.94       4.16      32.25
C       7.91       4.61      30.38
C       7.00       4.01      31.22
N       7.84       2.53      34.70
N       8.58       0.92      36.03
N       5.73       2.42      33.30
N       3.64       1.76      33.00
N       6.41       4.57      34.43
N       5.53       6.59      34.70
N       7.66       3.72      32.41
N       9.12       4.69      31.04
