25

N       9.78       1.46      11.67
O       8.80      -2.95      12.59
O       9.03      -1.63      14.44
O       9.22       3.89      10.38
O       8.66       2.59       8.59
H      10.49       0.27      13.21
H       7.08       0.82       9.74
H       6.21      -1.21      13.47
H       4.07      -2.46      13.43
H       3.12      -3.24      11.26
H       4.37      -2.83       9.15
H       6.51      -1.57       9.19
C       8.85      -1.83      13.20
C       8.72      -0.61      12.34
C       9.71       0.38      12.45
C       8.85       1.57      10.70
C       7.82       0.65      10.51
C       7.71      -0.45      11.38
C       6.50      -1.31      11.33
C       5.81      -1.58      12.53
C       4.60      -2.28      12.50
C       4.07      -2.72      11.28
C       4.77      -2.47      10.10
C       5.97      -1.76      10.12
C       8.92       2.79       9.82
