36

C       5.71      10.83      17.26
C       5.00      11.67      16.39
C       3.61      11.67      16.39
C       5.00       9.98      18.12
C       3.61       9.99      18.13
C       2.89      10.83      17.26
C       1.42      10.83      17.26
C       0.70      10.82      18.46
C       0.70      10.84      16.05
C      -5.71      10.83      17.26
C      -5.00       9.98      16.39
C      -3.61       9.99      16.39
C      -5.00      11.67      18.12
C      -3.61      11.67      18.13
C      -2.89      10.83      17.26
C      -1.42      10.83      17.26
C      -0.70      10.82      16.05
C      -0.70      10.84      18.46
H       5.56      12.34      15.73
H       3.06      12.34      15.72
H       5.56       9.32      18.78
H       3.06       9.31      18.79
H       1.24      10.83      19.41
H       1.24      10.83      15.10
H      -5.56       9.32      15.73
H      -3.06       9.31      15.72
H      -5.56      12.34      18.78
H      -3.06      12.34      18.79
H      -1.24      10.83      15.10
H      -1.24      10.83      19.41
O       7.78      10.02      18.06
C       7.20      10.83      17.26
O       7.78      11.63      16.45
O      -7.78      11.63      18.06
C      -7.20      10.83      17.26
O      -7.78      10.02      16.45
