38

O       4.52      -0.08      12.22
O       3.31      -2.01      12.15
F       3.75       3.23       5.94
H       5.65       1.28       9.12
H       5.96       2.50       7.86
H       5.88       2.97       9.58
H       3.76       3.61       8.41
H       3.46       2.39       9.66
H      -0.46      -0.83       5.26
H      -0.01       0.38       4.04
H      -0.27      -1.30       3.55
H       2.17      -0.78       3.64
H       1.76      -2.02       4.84
H       3.26      -3.01       6.46
H       3.64      -2.58       8.14
H       2.45      -3.85       7.81
H       1.29      -1.74       8.47
H       0.89      -2.16       6.80
C       3.08      -0.41      10.47
C       3.31       1.67       7.66
C       3.26       2.02       6.32
C       2.21      -0.09       5.66
C       2.22      -0.48       7.01
C       2.79       0.39       7.98
C       2.74       1.18       5.32
C       2.73       1.62       3.98
C       2.90      -0.05       9.32
C       2.68       1.98       2.82
C       2.31       2.43       1.51
C       3.66      -0.85      11.70
C       3.94       2.56       8.69
C       5.45       2.31       8.82
C       1.62      -0.96       4.58
C       0.13      -0.66       4.35
C       1.71      -1.83       7.45
C       2.83      -2.88       7.47
O       1.59       1.66       0.82
O       2.69       3.62       1.17
