28

H       3.00       6.69       4.69
H       3.01       6.67       2.18
H       7.19       5.68       4.70
H       3.01       6.53      -4.66
H       7.22       5.61      -4.69
H       7.21       5.48      -2.20
C       5.15       6.31      -6.30
C       5.07       6.06       6.33
C       5.09       6.17       4.84
C       3.92       6.47       4.13
C       3.92       6.47       2.74
C       5.10       6.16       2.02
C       6.26       5.90       2.77
C       6.28       5.91       4.15
C       5.11       6.07       0.62
C       5.10       5.99      -0.60
C       5.11       5.95      -2.01
C       3.94       6.22      -2.75
C       3.93       6.29      -4.13
C       5.13       6.10      -4.83
C       6.30       5.77      -4.13
C       6.29       5.70      -2.74
O       4.05       6.64      -6.86
O       3.96       6.26       6.92
O       6.16       5.72       6.89
O       6.28       6.18      -6.89
F       7.41       5.62       2.10
F       2.79       6.44      -2.06
