22

H       7.78      12.30       0.33
H       7.21      17.15      -0.33
H       5.06      16.19       2.07
H       9.93      13.26      -2.07
H       4.17      15.62       0.68
H      10.83      13.83      -0.68
H       5.11      17.14       0.56
H       9.89      12.31      -0.56
O       4.83      13.72       2.31
O      10.17      15.73      -2.31
C       5.58      13.10       1.46
O       5.59      11.86       1.28
C       9.41      16.36      -1.46
O       9.40      17.59      -1.28
C       6.52      13.98       0.69
C       8.47      15.47      -0.69
C       6.32      15.37       0.51
C       8.68      14.08      -0.51
C       7.68      13.38       0.18
C       7.32      16.07      -0.18
C       5.10      16.12       0.98
C       9.89      13.33      -0.98
