10

F       1.38       3.97       5.02
F      -1.35       7.19       1.78
F      -1.35       3.97       5.02
F       1.38       7.19       1.78
C       0.71       4.78       4.21
C      -0.69       6.39       2.60
C      -0.69       4.78       4.21
C       0.71       6.39       2.60
N       1.39       5.58       3.40
N      -1.37       5.58       3.40
