44

C       6.06       9.62      14.04
C       7.07      10.22      14.79
C       8.06       9.45      15.44
C       8.92       9.23      17.72
C       8.77       9.97      16.60
C       6.03       8.24      13.77
N       7.45      12.92      24.57
H       8.56      13.96      21.78
H       5.48       5.37      13.32
H       3.78       9.05      11.83
N       7.83      13.91      23.76
N       4.04       5.85      11.86
N       3.50       7.01      11.37
N       7.24      10.58      24.69
N       4.99      10.47      13.46
N       7.03      11.68      15.00
O       6.78      10.78      25.85
O       7.38       9.44      24.21
O       5.29      11.16      12.47
O       3.86      10.37      13.96
O       5.93      12.20      15.26
O       8.11      12.29      14.92
H       8.95      11.05      16.64
H       7.25       6.47      13.98
H       8.90       7.47      15.48
H       9.84      12.68      20.68
H       8.64       8.17      17.69
H      10.22      11.57      18.54
H       7.65       9.25      22.10
H       8.08       8.11      19.96
C       7.63      11.72      23.95
C       8.26      13.34      22.61
C       8.19      11.93      22.65
C       4.95       6.16      12.80
C       4.07       8.03      12.05
C       5.03       7.56      12.96
C       8.61      11.10      21.53
C       9.41      11.69      20.52
C       9.64      11.06      19.31
C       9.10       9.79      19.05
C       8.46       9.12      20.12
C       8.20       9.76      21.32
C       8.09       8.08      15.09
C       7.14       7.52      14.26
