19

C      13.91       5.15      11.33
H      12.55      10.77      12.83
S      12.70       7.79      14.18
S      13.59       8.48      10.16
H      12.29       5.33      10.30
C      12.88       5.04      14.26
O      12.88       3.94      13.62
O      12.69       5.21      15.52
C      13.05      11.21      10.07
O      12.73      12.29      10.68
O      13.28      11.07       8.82
C      13.44       6.33      12.13
C      12.85       9.91      12.23
C      13.07       6.26      13.47
C      13.14      10.00      10.89
C      12.97       8.58      12.68
C      13.36       7.67      11.67
O      13.10       4.79      10.29
O      14.94       4.55      11.55
