28

H       6.92       9.01       0.36
H       2.00       8.72      -0.34
C       6.79      13.81       0.28
C       1.81      13.66      -0.23
C       7.82       4.55       0.45
C       2.05       3.94      -0.12
C       5.09      10.12       0.10
C       3.68      10.05      -0.11
C       3.07       8.79      -0.20
C       3.82       7.60      -0.09
C       5.24       7.69       0.09
C       5.84       8.95       0.20
C       2.42      12.35      -0.24
C       2.95      11.25      -0.20
C       6.06       6.54       0.19
C       6.86       5.62       0.28
C       2.64       5.26      -0.14
C       3.18       6.35      -0.14
C       6.21      12.50       0.28
C       5.72      11.39       0.20
O       7.70      14.04       1.16
O       1.97      14.41      -1.23
O       1.14      13.93       0.84
O       6.38      14.61      -0.62
O       8.47       4.51       1.52
O       7.91       3.74      -0.55
O       1.24       3.65      -1.08
O       2.40       3.17       0.83
