20

H       2.10      24.22      13.99
H      -2.05      26.10      11.98
H       2.23      25.60      11.91
H      -2.18      24.71      14.05
C      -0.08      22.17      17.56
C       0.26      28.14       8.40
C       1.27      25.40      12.39
C      -1.22      24.91      13.58
C       0.10      25.93      11.81
C      -0.04      24.39      14.16
C      -1.15      25.68      12.42
C       1.20      24.64      13.54
C       0.17      26.70      10.63
C      -0.09      23.62      15.34
C      -0.10      22.97      16.37
C       0.23      27.35       9.60
O       1.07      21.84      18.01
O      -0.86      28.45       7.89
O      -1.20      21.87      18.09
O       1.41      28.45       7.94
