16

S      21.98      13.52      18.26
S      21.20      13.75      22.36
C      24.41      12.23      18.27
C      23.18      12.78      20.48
O      25.41      11.71      18.87
O      24.26      12.35      17.00
C      18.77      15.04      22.35
C      20.01      14.48      20.14
C      23.33      12.77      19.09
C      19.86      14.49      21.53
C      21.22      13.85      19.76
Br      24.36      12.09      21.76
Br      18.82      15.17      18.86
C      21.97      13.41      20.86
O      17.79      15.57      21.75
O      18.92      14.92      23.62
