26

C       1.57       3.24       2.02
C      -1.58      -3.23      -2.00
C       1.39       1.48       3.52
C      -1.41      -1.47      -3.50
C       0.62       0.74       2.63
C      -0.63      -0.73      -2.62
C       0.80       2.56       1.08
C      -0.81      -2.55      -1.07
C       0.30       1.29       1.38
C      -0.31      -1.28      -1.37
C      -0.47       0.49       0.38
C       0.47      -0.48      -0.37
N       1.86       2.71       3.22
N      -1.87      -2.70      -3.20
H       1.96       4.24       1.83
H      -1.97      -4.23      -1.82
H       1.66       1.09       4.50
H      -1.68      -1.08      -4.48
H       0.28      -0.25       2.93
H      -0.29       0.26      -2.92
H       0.58       3.03       0.11
H      -0.59      -3.02      -0.10
H      -1.26      -0.09       0.88
H       1.26       0.10      -0.87
H      -0.96       1.15      -0.35
H       0.95      -1.14       0.36
