40

H      10.04      19.11      12.45
H       7.87      19.35      16.17
H       5.72      19.39      12.43
H       5.70      19.01       8.09
H       7.82      18.97       4.32
H      10.02      19.21       8.03
C       7.88      19.25      12.28
C       9.09      19.19      12.99
C       9.09      19.22      14.39
C       7.87      19.32      15.08
C       6.66      19.38      14.38
C       6.66      19.34      12.98
C       7.86      19.12       8.23
C       6.64      19.03       7.53
C       6.62      18.98       6.13
C       7.83      19.01       5.41
C       9.06      19.09       6.09
C       9.07      19.14       7.50
C       3.40      19.57      16.81
C      12.36      19.21      16.82
C       3.32      18.79       3.76
C      12.34      19.04       3.69
C      11.25      19.11       4.63
C      10.26      19.11       5.34
C       5.40      18.89       5.41
C       4.40      18.81       4.71
C      10.29      19.17      15.14
C      11.26      19.15      15.88
C       4.48      19.56      15.86
C       5.45      19.48      15.12
C       7.88      19.21      10.86
C       7.88      19.17       9.64
O       2.21      19.61      16.36
O       3.76      19.51      18.03
O      13.54      19.07      16.38
O      12.02      19.42      18.03
O       2.12      18.74       4.21
O       3.67      18.85       2.54
O      13.54      19.10       4.14
O      11.99      18.89       2.47
