28

C      -1.15      -1.68       8.94
C       4.23       2.63      15.07
C      -0.40      -0.94       9.84
H       5.24       2.53      15.48
C       3.36       3.64      15.49
C       0.30       2.83      13.38
H       3.67       4.36      16.24
C       2.08       3.68      14.93
N       3.87       1.71      14.16
H       1.37       4.45      15.24
C       1.68       2.74      13.97
N       3.35      -0.29      12.48
H       1.92      -3.33      10.50
C       2.62       1.75      13.61
N       2.86      -1.21      11.63
H       0.45      -4.54       8.88
C       2.38       0.65      12.66
N       1.28       0.39      11.92
H      -2.02      -1.25       8.45
C       1.62      -0.77      11.31
N      -0.84      -2.95       8.59
H      -0.67       0.08      10.09
C       0.75      -1.51      10.41
H       0.11       2.03      12.66
C       1.05      -2.85      10.08
H      -0.45       2.78      14.18
C       0.23      -3.51       9.18
H       0.17       3.81      12.88
