16

C       3.79       2.90       5.78
C       1.51       4.09       6.15
S       2.53       3.69       3.63
C       2.63       3.55       5.36
C       4.04       2.89       3.45
C       4.85       2.52       2.35
C       4.60       2.53       4.68
S       6.11       1.73       4.51
C       6.02       1.88       2.77
O       7.05       1.44       0.72
O       8.08       0.80       2.65
O       0.56       4.63       5.48
O       1.59       3.99       7.42
C       7.13       1.33       1.98
Br       4.31       2.53       7.54
Br       4.33       2.90       0.59
