20

S      28.38      15.71      13.00
S      25.42      18.20      11.44
H      29.08      18.36      11.17
S      24.05      15.51      13.34
H      23.43      14.42      11.63
C      26.91      13.79      14.27
O      28.06      13.49      14.73
O      25.83      13.13      14.39
C      27.00      20.04      10.12
O      25.87      20.57       9.83
O      28.16      20.47       9.78
C      25.78      15.78      13.02
C      28.05      18.09      11.40
C      26.86      15.04      13.48
C      26.96      18.83      10.95
C      27.61      16.99      12.16
C      26.20      16.90      12.26
O      23.72      14.16      12.53
O      23.83      15.22      14.72
O      23.36      16.59      12.68
