36

O       6.18      17.58      22.87
H       5.09      16.16      24.45
H       4.94      14.51      26.31
H       8.84      10.42      31.23
H       9.24      14.51      26.64
H       4.54      10.42      30.91
H       9.37      16.12      24.74
O       8.45      17.52      22.90
H       8.79      12.34      27.19
H       8.69       8.77      33.09
H       8.63      10.71      29.01
H       4.41       8.81      32.80
O       5.33       7.41      34.64
H       4.98      12.58      30.36
H       5.15      14.22      28.53
C       7.30      17.18      23.34
C       6.48       7.75      34.21
C       5.99      15.78      24.94
C       7.79       9.14      32.60
C       5.92      14.87      25.99
C       7.86      10.05      31.55
C       7.08      14.39      26.61
C       6.70      10.54      30.93
C       8.33      14.85      26.15
C       5.45      10.08      31.40
C       8.41      15.75      25.09
C       5.37       9.17      32.45
C       7.24      16.23      24.48
C       6.54       8.70      33.06
C       7.97      12.42      27.89
C       5.81      12.51      29.65
C       7.87      11.49      28.92
C       5.91      13.44      28.62
C       6.79      11.52      29.83
C       6.99      13.41      27.71
O       7.60       7.35      34.67
