24

H      -9.19       9.51       5.97
H      -6.79      10.68       4.92
C      -8.58      11.98       4.06
C      -8.88      11.33       2.63
C     -10.94      11.94       5.48
C      -7.02       9.42       2.18
C      -7.78      10.68       4.45
C      -9.08      10.03       5.02
C     -10.20      10.68       3.21
C      -9.88      11.31       4.63
C      -8.14      13.32       4.27
C      -8.77      11.99       1.37
C     -11.48      10.70       2.58
C      -9.83       8.04       3.38
C      -9.38       9.37       3.61
C      -8.07      10.04       3.05
N      -7.74      14.41       4.43
N      -8.69      12.51       0.33
N     -12.53      10.74       2.08
N     -10.23       6.95       3.22
O     -11.82      11.13       5.92
O     -10.86      13.20       5.65
O      -6.07      10.22       1.88
O      -7.19       8.21       1.84
