30

O       0.74      14.54      22.70
O      -4.15      21.09      15.85
H      -3.83      14.60      22.67
H      -3.85      16.30      20.87
H       0.47      16.31      20.86
H      -3.88      19.32      17.69
H       0.43      21.02      15.88
H       0.45      19.33      17.68
H       0.53      13.85      23.40
H      -3.94      21.78      15.15
C      -1.69      22.13      14.67
C      -1.71      13.50      23.88
C      -1.69      14.49      22.80
C      -2.89      14.98      22.27
C      -2.91      15.93      21.27
C      -1.69      16.42      20.75
C      -0.47      15.94      21.25
C      -0.46      14.98      22.26
C      -1.69      17.40      19.72
C      -1.71      18.23      18.83
C      -1.72      19.21      17.81
C      -2.93      19.69      17.30
C      -2.95      20.66      16.29
C      -1.72      21.14      15.75
C      -0.51      20.65      16.28
C      -0.49      19.70      17.28
O      -2.84      22.55      14.23
O      -0.58      22.51      14.19
O      -2.83      13.12      24.36
O      -0.56      13.08      24.32
