14

C       8.86       3.95      10.01
C       8.95       5.39       9.94
C       7.62      -2.00       9.42
H       7.15       1.15       8.65
C       8.65       1.34      10.10
O       6.80      -3.90      10.45
O       9.79       5.94      10.73
O       8.20      -4.10       8.64
O       8.17       5.95       9.10
C       7.80       0.61       9.34
F       9.48       0.72      10.98
C       7.53      -3.44       9.51
C       8.76       2.74      10.06
C       7.71      -0.79       9.39
