40

C       3.37      12.89      24.84
C       3.30      13.67      25.79
C       5.78      11.30      24.53
C       0.89      15.26      26.10
H       5.43       9.55      22.45
H       1.24      17.01      28.18
C       1.13      10.82      20.97
C       5.54      15.75      29.66
H       1.50      12.49      23.03
H       5.17      14.08      27.60
O       4.69       8.52      20.39
O       1.98      18.05      30.24
O       2.42       8.48      20.31
O       4.24      18.08      30.32
H       5.51      11.10      25.57
H       6.59      10.63      24.24
H       6.16      12.34      24.50
H       1.16      15.47      25.06
H       0.51      14.23      26.13
H       0.07      15.93      26.40
H       1.43      10.89      19.92
H       0.58       9.88      21.06
H       0.45      11.65      21.20
H       5.23      15.68      30.71
H       6.22      14.91      29.43
H       6.09      16.69      29.57
C       3.53       8.94      20.74
C       3.14      17.62      29.89
C       4.59      11.15      23.62
C       2.08      15.42      27.01
C       4.57      10.20      22.60
C       2.10      16.36      28.03
C       3.46      10.03      21.75
C       3.20      16.53      28.88
C       2.33      10.87      21.88
C       4.34      15.69      28.75
C       2.35      11.82      22.90
C       4.31      14.74      27.73
C       3.44      11.96      23.79
C       3.23      14.60      26.85
