24

C      12.00       8.75      21.40
H      11.35       9.53      21.79
C      13.54       8.25      24.85
H      13.32       9.87      19.77
C      14.03       8.52      26.18
H      10.49       7.15      20.52
O      13.67       9.63      26.72
O      14.82       7.66      26.69
H      12.33       5.66      22.10
H      14.29       6.00      20.08
H      15.16       8.38      21.35
O      10.83       7.80      15.17
O      11.98       5.83      15.20
C      12.12       7.26      17.02
C      14.12       8.11      21.15
C      13.02       7.92      22.29
C      13.64       6.78      20.47
C      12.62       7.61      19.58
C      12.55       6.59      21.57
C      11.53       7.42      20.72
C      13.28       8.09      23.67
C      12.37       7.43      18.20
C      11.63       6.95      15.70
C      13.10       8.94      20.30
