21

H      10.74      11.13       4.53
H      11.06       9.33       3.44
H      15.05      12.22       2.55
H      14.26      11.95       5.01
H      15.29      12.92       6.84
H      13.79      12.84       7.80
H      13.95      14.05       6.50
C      11.36      12.25       6.66
C      14.29      10.30       1.66
C      12.45      10.62       3.36
C      13.63      11.00       2.74
C      11.82      11.24       4.49
C      12.36      11.85       5.60
C      14.20      13.02       6.80
N      13.69      12.04       5.85
O      13.83       9.20       1.21
O      15.38      10.88       1.20
O      11.75       9.58       2.80
O      14.26      12.17       3.14
O      11.65      12.01       7.89
O      10.28      12.78       6.25
