104

H       7.29       6.45       9.60
H       2.31       4.34      -9.65
H       6.52       5.14      -9.85
H       3.06       5.84       9.87
H       6.63       5.20      -7.33
H       2.93       5.62       7.37
H       4.07       8.30      -3.71
H       5.16       2.33       3.72
H       4.15       8.57      -1.24
H       5.08       2.04       1.26
H       4.48       8.76       0.64
H       5.15       1.91      -0.66
H       9.36       6.52       6.79
H       8.62       7.12       8.29
H       8.23       8.33       5.50
H       7.44       8.91       6.96
H       9.69       9.48       7.97
H       9.49      10.30       6.41
H      10.51       8.85       6.53
H       2.08       2.28      -6.84
H       1.13       3.03      -8.16
H       0.57       3.48      -5.18
H      -0.42       4.06      -6.53
H      -0.91       1.63      -7.17
H      -1.47       2.02      -5.54
H       0.03       1.09      -5.77
H       4.95      11.21       3.14
H       5.31      10.40       1.60
H       6.85      10.03       4.23
H       7.16       9.11       2.75
H       7.73      11.26       1.52
H       8.78      11.01       2.93
H       7.46      12.18       3.02
H       5.18      -0.56      -3.17
H       4.77       0.18      -1.61
H       7.49       0.31      -3.03
H       7.15       1.08      -1.48
H       6.66      -1.20      -0.45
H       8.30      -1.13      -1.12
H       7.01      -1.97      -2.01
C       5.29       6.23      11.35
C       4.32       4.80     -11.38
C       4.88       7.02       4.94
C       4.68       3.65      -4.96
C       5.03       4.52       5.13
C       4.39       6.14      -5.13
C       3.88       5.82       7.87
C       5.69       4.99      -7.85
C       3.95       5.94       9.25
C       5.63       4.96      -9.24
C       6.34       6.30       9.08
C       3.25       4.49      -9.13
C       6.28       6.19       7.69
C       3.31       4.51      -7.73
C       5.03       5.93       7.10
C       4.54       4.78      -7.11
C       4.84       5.60       2.85
C       4.61       5.04      -2.86
C       4.77       6.89       3.46
C       4.75       3.77      -3.48
C       4.66       8.01       2.63
C       4.95       2.64      -2.66
C       4.97       4.44       3.65
C       4.41       6.21      -3.65
C       5.19       6.18       9.86
C       4.41       4.73      -9.88
C       4.53       6.48      -0.84
C       4.88       4.15       0.83
C       4.85       4.03      -0.63
C       4.64       6.62       0.61
C       4.66       5.19      -1.43
C       4.79       5.45       1.42
C       4.30       7.59      -1.67
C       5.01       3.04       1.67
C       4.24       7.45      -3.05
C       5.06       3.19       3.06
C       4.60       7.86       1.23
C       5.00       2.79      -1.26
C       8.49       7.05       7.19
C       8.36       8.44       6.58
C       9.58       9.31       6.89
C       1.44       3.14      -7.10
C       0.22       3.23      -6.19
C      -0.57       1.92      -6.17
C       5.38      10.30       2.70
C       6.82      10.09       3.13
C       7.74      11.20       2.62
C       5.42       0.27      -2.49
C       6.90       0.21      -2.11
C       7.23      -1.09      -1.39
N       4.94       5.81       5.67
N       4.59       4.87      -5.67
O       6.45       6.22      11.87
O       3.16       4.82     -11.90
O       5.42       4.86     -12.02
O       4.19       6.26      12.01
O       4.92       8.08       5.54
O       4.71       2.59      -5.58
O       4.22       7.13      -5.84
O       5.16       3.53       5.84
O       7.35       6.23       6.85
O       2.21       4.35      -6.93
O       4.52       9.25       3.18
O       5.09       1.44      -3.26
