22

C      11.18      17.52       1.84
C      10.47      17.37       0.64
H       9.39      17.26       0.67
C      11.17      17.33      -0.56
H      10.65      17.20      -1.50
H      13.14      17.88       2.68
C      12.58      17.44      -0.53
C      12.57      17.70       1.76
H      11.88      16.13      -2.86
C      13.38      17.28      -1.76
N      13.26      17.66       0.62
H      13.31      15.88      -4.87
C      12.88      16.57      -2.86
H      16.41      18.02      -3.14
N      14.92      16.93      -4.08
H      15.10      18.38      -1.03
C      13.67      16.42      -3.99
C      15.40      17.62      -3.03
O      11.19      17.53       4.23
C      14.67      17.82      -1.86
O       9.26      17.10       3.22
C      10.49      17.40       3.15
