13

N      17.20       7.56      13.54
H      17.14       9.64      14.05
O      15.52       5.51      12.90
C      16.31       7.74      12.38
H      15.63       8.59      12.53
O      15.16       7.49      15.30
C      15.87       8.55      15.41
O      14.67       6.52      11.11
H      17.99       8.58      15.20
C      15.45       6.51      12.11
H      16.88       7.97      11.47
C      17.12       8.65      14.53
O      15.60       9.48      16.21
