20

C       3.28      12.03       4.34
C       5.65      11.04       3.34
C       1.76      10.99       3.29
C       1.77      12.11       4.41
O       5.55      14.06       6.36
O       3.28      13.99       6.29
O       5.51       9.01       1.31
O       3.24       9.09       1.40
H       6.60      12.41       4.71
H       6.59      10.65       2.95
H       1.32      10.02       3.58
H       1.32      11.28       2.32
H       1.33      13.07       4.11
H       1.33      11.81       5.37
C       4.43      13.60       5.91
C       4.40       9.47       1.77
C       4.45      10.52       2.82
C       4.46      12.55       4.86
C       3.27      11.05       3.35
C       5.66      12.03       4.33
