27

H       3.74      11.99       7.22
H       3.53      11.87      11.54
H       0.07      17.16       5.99
H       0.27      12.83       6.16
H       1.67      18.67       9.92
H       1.69      15.53      12.90
C       3.83      11.75       8.27
C       3.28      12.42       9.37
C       3.73      11.70      10.49
C      -0.03      16.09       5.83
C       0.51      15.03       6.58
C       0.09      13.87       5.91
C       1.65      18.07      10.83
C       1.69      16.67      10.97
C       1.68      16.46      12.35
C       2.47      13.62       9.23
C       1.27      14.96       7.82
C       1.76      15.66       9.92
N       4.49      10.67      10.08
N       4.57      10.72       8.70
N      -0.65      14.21       4.85
N      -0.71      15.59       4.78
N       1.62      17.64      12.99
N       1.63      18.65      12.04
N       1.93      13.80       8.01
N       1.24      15.97       8.71
N       2.33      14.48      10.26
