22

O      20.99      14.22      12.25
O      19.73      14.66      14.10
H      18.38      16.64      13.37
H      19.78      12.73      10.96
H      18.96      11.56       8.96
H      17.09      12.53       7.60
H      16.10      14.68       8.22
H      16.58      17.66      11.96
C      18.97      13.16      10.37
C      18.51      12.51       9.25
C      17.46      13.06       8.48
C      16.90      14.26       8.83
C      17.34      14.97       9.98
C      19.92      14.60      12.84
C      18.40      14.40      10.78
C      18.78      15.06      11.99
C      18.10      16.19      12.42
C      17.08      16.76      11.64
C      16.73      16.20      10.42
C      15.76      16.96       9.58
O      15.96      16.96       8.32
O      14.84      17.61      10.19
