38

H       6.54       9.43      10.53
H       2.49       9.67       9.10
H       5.15       9.76      11.61
H       2.83       9.39      10.80
H       6.63      11.69       9.80
H       2.39      11.95       9.62
H       5.44      12.18       7.77
H       3.73      11.76       7.72
H       7.52      11.53       7.86
H       6.77      11.04       6.31
H       8.11      10.08       6.99
H       5.45       9.26       5.56
H       4.40      10.73       5.61
H       3.70       9.11       5.27
C       4.63       7.90       9.49
C       4.48      13.57       9.62
C       5.58       9.95      10.61
C       3.18       9.92       9.91
C       5.76      11.47      10.42
C       3.18      11.42      10.18
C       4.99      10.05       8.17
C       4.59       9.43       9.55
C       4.51      12.05       9.72
C       4.67      11.56       8.24
C       7.21      10.66       7.24
C       4.46       9.65       5.85
N       6.15      12.10      11.75
N       2.77      11.78      11.63
O       5.76       7.35       9.36
O       3.51       7.30       9.61
O       5.59      14.16       9.79
O       3.38      14.10       9.27
O       7.27      12.63      11.80
O       5.36      12.01      12.69
O       2.81      12.98      11.92
O       2.35      10.88      12.37
O       6.38       9.76       7.96
O       4.18       9.38       7.22
