37

C       5.98       0.74      19.25
H       6.27      -0.25      16.33
C       6.07      -0.33      20.35
O       7.54       3.92      22.12
H       6.82       1.65      17.54
O       7.02      -3.92      13.12
H      10.37       1.44      17.58
O       9.82       3.91      22.14
H       8.97       2.37      17.05
O       9.30      -3.92      13.10
H       8.49       0.82      15.36
H      10.03       0.04      15.73
O       8.70      -2.78      18.26
H       8.51      -0.89      19.84
H      10.11      -0.32      19.43
H       6.45      -1.34      17.70
H      10.16      -1.65      17.50
H       6.14      -1.35      19.94
H       6.93      -0.16      21.01
H       5.17      -0.30      20.98
H       5.97       1.73      19.73
H       5.00       0.64      18.76
H       7.81      -2.70      18.64
C       8.16      -3.56      13.55
C       8.69       3.57      21.69
C       7.03       0.74      18.13
C       9.30       1.36      17.33
C       9.08       0.36      16.17
C       8.18      -2.64      14.66
C       8.52       0.89      18.58
C       6.92      -0.48      17.19
C       8.32      -0.90      16.67
C       9.13      -1.48      17.86
C       9.11      -0.47      19.02
C       8.23      -1.86      15.59
C       8.64       1.86      19.65
C       8.68       2.65      20.57
