80

H       6.98       4.66       3.43
H       8.86      11.04      -0.97
H       6.75       4.67       0.96
H       4.48       9.30       9.17
H       4.39       9.17      -9.19
H       3.45       9.77       6.91
H       3.26       9.34      -6.94
H      10.67       6.31      -5.85
H      10.98       7.10       5.81
H       7.99      12.30       1.51
H       5.29       4.18      -1.53
H       7.87      11.30       3.44
H       5.78       5.06      -3.46
H       9.32       7.42      -9.86
H       9.30       7.30       9.85
H       9.05      10.91      -3.44
C       8.03       9.04      -3.57
C       7.29       8.01       9.92
C       7.32       8.16      -9.93
C       7.86       9.14      -0.74
C       7.08       6.79       0.73
C       6.91       6.83      -0.72
C       7.70       9.21       0.71
C       7.40       7.98      -1.43
C       7.41       8.00       1.42
C       8.46      10.17      -1.49
C       6.95       5.60       1.47
C       8.57      10.11      -2.88
C       7.07       5.59       2.86
C       7.29       7.96      11.43
C       7.34       8.17     -11.44
C       7.82      10.40       1.47
C       6.30       5.81      -1.48
C       7.43       7.98       2.85
C       7.43       7.98      -2.86
C       7.61       9.22       5.03
C       6.81       6.89      -5.05
C       7.62       9.19       3.56
C       7.31       6.74       5.04
C       8.09       9.04      -5.04
C       8.55       7.61       7.86
C       8.52       7.59      -7.87
C       8.44       7.61       9.26
C       8.45       7.71      -9.27
C       6.18       8.46       9.16
C       6.19       8.55      -9.17
C       6.24       8.41       7.74
C       6.84       6.90      -3.57
C       6.25       8.48      -7.74
C       7.43       7.99       7.11
C       7.42       7.99      -7.12
C       5.08       8.77       6.89
C       5.12       8.95      -6.90
C       9.80       7.04      -7.34
C       9.88       7.21       7.33
C       7.77      10.38       2.87
C       6.26       5.86      -2.88
C       7.27       6.77       3.56
N       7.48       7.99       5.67
N       7.46       7.95      -5.68
O       6.25       6.01      -5.70
O       8.63       9.91      -5.71
O       7.20       5.72       5.70
O       5.11       8.92       9.82
O       5.13       9.02      -9.83
O       4.82       8.39       5.76
O       4.20       9.64       7.53
O       5.15       9.30      -5.73
O       3.91       8.98      -7.58
O      10.81       6.92      -8.01
O       9.77       6.65      -6.03
O      10.78       6.76       8.02
O      10.06       7.42       5.99
O       7.99      11.60       0.84
O       5.71       4.74      -0.85
O       8.44       7.98      11.99
O       6.23       8.06     -12.04
O       6.17       7.88      12.02
O       8.49       8.25     -11.98
O       7.70      10.27       5.69
