22

H       0.95       5.67       6.39
H      -3.12       6.96       5.86
H       1.83       3.77       5.04
H      -3.43       5.31       4.02
H       1.52       2.12       3.20
H      -2.55       3.41       2.66
C      -0.92       7.38       7.34
C      -1.06       6.40       6.23
C      -0.54       2.68       2.83
C       0.88       3.71       4.50
C       0.71       2.79       3.49
C      -1.60       3.51       3.18
C      -1.43       4.49       4.19
C      -0.17       4.59       4.87
C      -0.01       5.58       5.87
C      -2.31       6.30       5.56
C      -2.48       5.38       4.55
C      -0.68       1.71       1.71
O       0.24       7.83       7.63
O      -2.00       7.69       7.93
O      -1.84       1.26       1.42
O       0.40       1.40       1.12
