24

H       7.65       7.01      16.42
C      13.47       4.87      20.30
H      10.06       5.07      20.25
H       9.38       7.22      18.61
C      12.16       4.90      20.78
C       8.49       6.39      16.71
H      11.59       3.39      16.64
C      11.10       5.09      19.90
C       9.34       6.52      17.78
H      10.81       3.52      15.04
C       9.96       4.77      16.54
C      14.61       4.64      21.25
H      10.00       2.65      16.37
N       8.89       5.31      15.95
C      10.64       3.51      16.12
N      10.27       5.50      17.66
H      12.86       5.48      16.99
C      11.36       5.29      18.55
H      11.96       4.73      21.84
C      12.67       5.29      18.05
C      13.73       5.06      18.93
H      14.76       5.04      18.58
O      15.78       4.44      20.79
O      14.35       4.68      22.50
