46

H       9.32       8.48       4.25
H       5.38       8.78      -4.19
H       5.82      11.26       2.06
H       6.27      11.50       4.53
H       8.92       8.30       1.77
H       3.55       8.66       0.81
H       2.64       7.99      -0.56
H       3.33       6.90       0.66
H       4.77       6.87      -1.39
H       5.65       7.57      -0.04
H       4.99       9.88      -0.88
H       4.24       9.10      -2.29
H      12.75       9.07      -5.34
H      11.71       9.24      -6.78
H      12.51      10.66      -6.08
H       9.76       8.90      -1.93
H      10.07      10.61      -5.46
H      11.08      10.45      -4.01
H      10.75       8.00      -4.01
H       9.89       8.08      -5.55
C       7.31       8.74      -5.94
C       8.35       8.99       2.39
C       7.36       9.79       1.78
C       6.59      10.67       2.56
C       6.84      10.80       3.92
C       6.36       9.00      -2.29
C       6.34       8.84      -3.67
C       7.65       9.06      -1.68
C       7.50       8.78      -4.46
C       8.78       8.79      -3.86
C       8.08      10.11       5.99
C       8.81       8.91      -2.47
C       8.57       9.09       3.75
C       7.83      10.01       4.53
C       5.05       9.01      -1.55
C       4.80       7.73      -0.72
C       3.51       7.82       0.09
C      10.07       8.63      -4.62
C      10.78       9.95      -4.95
C      12.01       9.72      -5.83
N       7.03       9.71       0.41
N       7.95       9.23      -0.32
O       8.12       9.43      -6.65
O       8.78       9.18       6.53
O       6.33       8.05      -6.37
O       7.58      11.12       6.60
