20

C      12.34      30.80      15.12
C      15.61      28.49      19.11
C      16.31      27.99      19.97
C      11.64      31.29      14.26
C      17.14      27.41      20.99
C      10.81      31.88      13.24
C      14.57      30.31      16.02
C      12.57      29.55      17.22
C      13.38      28.98      18.20
C      15.38      29.74      17.01
C      13.16      30.22      16.11
C      14.79      29.07      18.12
Cl      12.68      28.16      19.54
Cl      10.87      29.45      17.32
Cl      15.27      31.12      14.69
Cl      17.08      29.84      16.91
O      16.80      26.24      21.40
O      18.13      28.11      21.39
O      11.14      31.65      12.03
O       9.82      32.58      13.65
