17

O      -2.94      -1.64      10.18
O       2.07       0.97      14.49
O       2.98       1.86      12.60
C       0.08      -1.01      14.13
O      -1.60      -1.37       8.35
H      -1.79      -1.20      12.23
H       0.20      -0.60       9.95
H       0.99       1.00      11.38
C       2.10       1.17      13.23
C      -0.85      -0.83      11.81
H      -0.54      -1.91      14.10
C      -0.72      -0.87      10.47
H       1.08      -1.26      14.51
H      -0.36      -0.31      14.87
C       0.15      -0.37      12.77
C       1.04       0.59      12.39
C      -1.83      -1.33       9.61
