33

C      10.07      13.68       2.92
O       6.98      15.80       0.99
H       8.23      13.82       1.78
C      11.12      14.38       3.53
O       7.90      17.75       1.52
H      10.08      12.59       2.91
C      11.10      15.79       3.49
C      10.05      16.47       2.88
H      11.90      16.35       3.97
C      12.19      13.65       4.24
H      10.03      17.56       2.86
C      11.85      12.54       5.04
H      10.81      12.24       5.11
C      12.82      11.85       5.75
H      12.54      10.98       6.36
H      15.56      13.61       4.74
C      14.17      12.22       5.65
C      14.52      13.31       4.83
H      13.83      14.87       3.52
C      13.54      14.03       4.15
H      14.03      11.29       8.22
C      15.19      11.47       6.39
H      15.76       9.98       9.41
C      14.96      11.04       7.71
H      18.27      10.01       6.11
C      15.92      10.31       8.38
H      16.65      11.39       4.79
C       7.90      16.48       1.58
C      17.33      10.34       6.53
N      17.09       9.94       7.80
C       9.00      15.76       2.27
C      16.42      11.11       5.81
C       9.03      14.36       2.29
