48

C       5.91       0.00       8.70
C       5.91      -2.50      13.03
C       5.91       2.50      13.03
H       7.30       1.65       8.53
H       7.30      -3.47      11.69
H       7.30       1.83      14.54
C       5.91       0.00       5.89
C       5.91      -4.94      14.44
C       5.91       4.94      14.44
H       4.52       3.47      11.69
H       4.52      -1.83      14.54
H       4.52      -1.65       8.53
C       5.91       0.00       4.40
C       5.91      -6.23      15.18
C       5.91       6.23      15.18
H       7.30       1.64       6.03
H       7.30      -5.63      12.95
H       7.30       4.00      15.78
C       5.91       0.00      10.18
C       5.91      -1.22      12.29
C       5.91       1.22      12.29
H       4.52       5.63      12.95
H       4.52      -4.00      15.78
H       4.52      -1.64       6.03
C       5.91       1.21      10.89
C       5.91      -1.21      10.89
C       5.91       0.00      12.98
O       6.73       0.78       3.81
O       6.73      -7.13      14.81
O       6.73       6.35      16.15
H       5.91       2.15      10.35
H       5.91      -2.15      10.35
H       5.91       0.00      14.07
O       5.10      -0.78       3.81
O       5.10       7.13      14.81
O       5.10      -6.35      16.15
C       6.68       0.93       7.98
C       6.68      -3.59      12.58
C       6.68       2.66      14.20
C       5.14       3.59      12.58
C       5.14      -2.66      14.20
C       5.14      -0.93       7.98
C       6.69       0.93       6.59
C       6.69      -4.79      13.28
C       6.69       3.86      14.89
C       5.13       4.79      13.28
C       5.13      -3.86      14.89
C       5.13      -0.93       6.59
