23

O      14.17      20.93       7.88
O      15.51      19.95       6.33
H      14.75      17.54       5.84
H      12.63      19.66      10.28
H      11.47      20.28       9.06
H      12.65      15.00       5.20
H      14.40      15.25       5.33
H      13.54      14.24       6.51
C      11.29      15.12       7.84
C      14.53      19.94       7.17
C      12.01      17.46       8.50
C      12.20      16.31       7.75
C      13.22      16.35       6.77
C      13.97      17.52       6.60
C      13.76      18.69       7.35
C      12.76      18.62       8.32
C      12.04      19.40       9.40
C      11.16      18.09       9.57
C      13.47      15.15       5.91
Br      11.27      17.25      11.34
Br       9.28      18.33       9.07
O      10.28      15.14       7.08
O      11.60      14.17       8.65
