26

C      17.23      17.44      10.87
C      15.99      22.41       5.45
C      19.25      18.14      10.26
H      16.15      17.39      10.96
C      13.97      21.71       6.06
H      17.07      22.46       5.36
H      19.99      18.70       9.71
C      19.37      17.20      11.26
C      13.85      22.65       5.06
H      13.23      21.15       6.61
C      17.26      19.11       9.07
H      20.26      16.82      11.74
C      15.96      20.74       7.25
H      12.96      23.03       4.58
C      16.07      18.67       8.46
H      15.68      17.68       8.69
C      17.15      21.17       7.85
H      17.54      22.16       7.63
C      17.80      20.36       8.77
H      18.71      20.70       9.26
C      15.42      19.49       7.55
H      14.51      19.15       7.05
N      18.10      16.78      11.63
N      15.12      23.07       4.69
N      17.89      18.27      10.02
N      15.33      21.58       6.30
