18

C      10.59      12.77       5.84
C       9.59      12.20       4.93
C       7.73      10.97       3.21
C       8.44      12.93       4.49
C       8.86      10.25       3.64
C       7.53      12.27       3.63
C       9.76      10.87       4.49
H       9.01       9.22       3.30
H       6.64      12.81       3.28
N       8.19      14.22       4.85
H      10.65      10.34       4.84
O      11.56      12.03       6.22
C       6.74      10.34       2.28
O      10.43      14.00       6.22
O       5.74      11.05       1.92
H       8.83      14.67       5.50
H       7.32      14.66       4.58
O       6.96       9.13       1.92
