16

C      12.22       1.50       2.26
C      15.06       3.28       4.94
C      13.21       2.12       3.19
C      15.24       3.40       3.55
C      13.03       2.02       4.58
C      14.32       2.82       2.68
O      11.23       0.88       2.79
O      12.44       1.64       1.01
C      13.95       2.59       5.45
O      15.82       3.77       7.13
O      17.04       4.50       5.35
C      16.05       3.90       5.88
H      16.10       3.94       3.18
H      12.16       1.47       4.96
H      14.44       2.90       1.60
H      13.82       2.52       6.53
