15

H      18.76       6.16       5.90
C      18.41       7.82       4.57
C      21.08       7.52       4.03
N      16.87       9.78       3.02
C      19.00       8.66       3.61
C      19.19       6.85       5.19
H      20.88       9.15       2.64
N      16.55      10.71       2.13
N      20.49       6.68       4.90
H      22.14       7.35       3.84
C      20.38       8.51       3.37
C      18.20       9.62       2.86
N      18.70      10.43       1.90
H      17.35       7.91       4.80
N      17.64      11.09       1.46
