18

C       9.87      10.95       0.02
C       6.28      17.53       0.01
O       9.66      10.12      -0.94
H       6.12      15.24      -1.70
O       6.55      18.35       0.95
O      10.73      10.76       0.97
O       5.47      17.72      -0.96
S       7.95      12.53      -1.21
S       8.13      15.88       1.29
H      10.40      14.11       2.45
C       6.97      16.23       0.04
C       7.66      14.10      -0.54
C       8.43      14.33       0.61
C       6.82      15.18      -0.86
C       9.29      13.25       0.96
C       9.14      12.20       0.03
H      10.78      12.46       2.07
N      10.12      13.23       2.04
