24

O       6.10      -1.74      12.36
O       7.14      -0.91      14.21
O      10.91       1.47       8.48
O      12.32       1.67      10.25
H       5.52      -0.66       8.60
H       5.69      -1.49      10.09
H       7.32       2.70       9.38
H       8.72       2.64       8.42
C       8.97       0.39      10.08
C      10.30       0.45      10.49
C      10.59      -0.22      11.71
C       9.57      -0.80      12.50
C       8.21      -0.74      12.12
C       7.97      -0.17      10.87
C       6.85       0.16       9.91
C       8.00       0.84       8.98
C      11.27       1.24       9.69
C       7.07      -1.18      12.97
N       7.83       2.20       8.64
N       6.10      -0.86       9.41
Cl      12.21      -0.39      12.25
Cl      10.00      -1.65      13.93
Cl       5.78       1.58      10.73
Cl       8.27      -0.12       7.45
