16

C       5.96      10.40      13.09
H       3.85      10.88      13.00
Cl       8.75      14.52      13.20
O       7.10       8.35      13.08
C       5.95       8.92      13.08
O       4.82       8.35      13.06
C       5.98      16.45      13.05
O       4.81      16.97      13.03
O       7.09      17.07      13.05
C       7.10      14.10      13.12
C       4.87      11.25      13.04
S       4.49      14.13      13.01
S       7.49      11.23      13.14
C       5.28      12.60      13.05
C       6.68      12.74      13.11
C       6.02      14.97      13.07
