16

O      25.25      25.38      17.83
C      23.16      26.91      13.39
C      24.76      25.75      15.52
C      22.85      27.14      14.76
C      25.07      25.52      14.15
C      23.63      26.57      15.80
C      24.29      26.09      13.11
Cl      21.53      28.11      15.26
Cl      26.39      24.55      13.65
Cl      23.13      26.94      17.40
Cl      24.79      25.72      11.51
O      22.67      27.28      11.08
O      21.34      28.25      12.61
C      22.33      27.53      12.28
C      25.59      25.13      16.63
O      26.58      24.41      16.30
