50

C       9.38       1.37      16.86
C      10.65       1.00      17.37
C      10.86       1.15      18.74
C       9.88       1.62      19.63
C       8.60       1.89      19.11
C       8.38       1.80      17.74
C      10.27       3.38      21.34
C      10.65       3.82      22.62
C      11.04       1.50      23.24
C      10.61       1.04      21.99
C      10.23       2.00      21.03
C       8.96       1.27      15.43
C      11.06       2.86      23.57
H      11.85       0.95      19.13
H      12.15       2.56      15.60
H      13.09       2.30      17.09
H      13.58       1.50      15.57
H      12.43      -0.13      17.08
H      11.49       0.11      15.60
H      12.15       5.00      20.08
H      11.69       3.68      18.99
H      11.18       5.33      18.61
H       9.27       4.08      19.55
H       9.71       5.36      20.65
H       7.81       2.23      19.77
C      11.68       3.20      24.88
H       8.52       5.65      22.52
H       8.88       5.26      24.22
H      11.33       5.51      23.75
H      11.01       5.86      22.07
H      12.72      -0.75      21.94
H      11.78      -1.25      23.36
H      11.78      -2.25      21.90
H       9.65      -0.88      22.12
H      10.52      -0.60      20.62
C      11.83       0.60      16.52
C      12.71       1.81      16.18
H       7.41       2.07      17.33
C      10.05       4.40      20.23
C      10.64       5.30      22.94
C      11.34       4.62      19.43
C       9.25       5.80      23.33
H      11.40       0.79      23.99
C      10.58      -0.45      21.70
C      11.78      -1.22      22.26
O      12.62       2.45      25.28
O      11.24       4.23      25.54
O       8.06       2.07      15.04
H       9.27       6.87      23.57
O       9.46       0.33      14.70
