20

N       7.30      18.47       1.24
N      14.39      18.59       1.24
H       7.39      19.76       2.85
H       9.88      19.80       2.94
H       9.87      17.06      -0.42
H       7.38      17.10      -0.31
H      11.74      20.51       2.03
H      14.24      20.48       2.05
H      14.37      16.69       0.42
H      11.88      16.52       0.38
C       7.99      19.19       2.14
C       9.37      19.21       2.17
C      10.10      18.46       1.24
C       9.37      17.67       0.34
C       7.98      17.70       0.38
C      11.58      18.50       1.22
C      12.28      19.63       1.68
C      13.67      19.63       1.68
C      13.74      17.51       0.76
C      12.35      17.43       0.74
