24

O       5.94      13.47       0.33
O       3.68      13.51       0.56
O       4.95      10.39     -10.28
O       2.75      10.96     -10.31
C       4.75      13.35      -0.11
C       3.88      10.82      -9.73
C       4.57      12.97      -1.55
C       3.29      12.83      -2.08
C       3.15      12.48      -3.42
C       5.66      12.76      -2.41
H       2.41      13.00      -1.46
H       2.15      12.35      -3.83
H       6.67      12.86      -2.02
C       4.17      11.94      -5.64
C       4.30      12.30      -4.21
H       5.99      10.56      -7.99
C       5.11      11.02      -7.53
C       3.95      11.21      -8.29
H       2.13      12.68      -5.84
C       2.86      11.81      -7.66
C       2.97      12.19      -6.33
H       1.94      11.98      -8.23
N       5.54      12.45      -3.70
N       5.23      11.37      -6.24
