26

H       7.16       1.13       3.83
H       4.49       9.00      -3.83
H       7.13       2.78       1.95
H       4.52       7.34      -1.95
H       3.14       3.90       3.20
H       8.51       6.23      -3.20
H       4.15       5.12       1.32
H       7.50       5.00      -1.32
H       3.26       2.10       4.93
H       8.39       8.02      -4.93
C       6.27       1.74       3.63
C       5.37       8.39      -3.63
C       6.27       2.68       2.61
C       5.38       7.45      -2.61
C       4.04       3.29       3.30
C       7.61       6.83      -3.30
C       5.03       4.47       1.36
C       6.62       5.66      -1.36
C       5.13       3.48       2.43
C       6.52       6.65      -2.43
C       4.11       2.30       4.27
C       7.54       7.82      -4.27
N       5.21       1.54       4.44
N       6.44       8.59      -4.44
N       5.96       4.57       0.47
N       5.69       5.56      -0.47
