19

C      16.88      11.07       4.80
C      20.08      11.98       3.34
C      16.77      12.36       5.33
C      20.19      10.71       2.81
C      18.88      12.13       4.06
C      18.09      10.96       4.08
C      15.89       9.96       4.96
H      20.84      12.74       3.18
S      18.12      13.40       4.95
S      18.84       9.68       3.20
H      15.73       9.71       6.02
H      16.24       9.06       4.44
H      14.91      10.24       4.56
C      15.69      12.91       6.14
C      21.29      10.17       2.00
O      14.71      12.14       6.42
O      15.82      14.14       6.51
O      21.18       8.95       1.62
O      22.26      10.97       1.74
