36

C      -1.29       2.29      15.74
C      -0.38       2.16      14.67
C      -0.64       1.29      13.62
C       0.28       4.31      18.95
C       0.91       4.61      20.15
C      -0.99       3.70      18.96
C       0.32       4.31      21.40
C      -1.01       3.83      21.38
C      -1.65       3.53      20.19
H       3.18       5.05      22.01
H       1.91       5.03      20.12
H       0.77       4.47      18.00
H       0.56       2.72      14.73
H       0.10       1.18      12.83
H      -1.52       3.63      22.33
H      -3.21       1.69      16.51
H      -2.66       3.10      20.18
H      -3.70       0.18      14.61
H      -0.16       3.40      24.25
N      -1.59       3.10      17.84
H      -0.41      -0.16      11.02
N       2.93       4.24      23.95
N       1.89       3.73      24.65
N      -1.83      -1.68      10.65
N      -2.95      -2.13      11.31
N      -0.82       3.06      16.82
H      -3.92      -1.59      13.11
C      -3.09      -1.39      12.43
C      -2.07      -0.43      12.52
C       2.49       4.61      22.73
C       1.12       4.32      22.61
C       0.79       3.77      23.87
C      -1.30      -0.67      11.37
C      -1.83       0.54      13.58
C      -2.76       0.73      14.63
C      -2.50       1.58      15.69
