35

O       1.49       3.85      23.45
O      -0.80       3.89      23.50
H      -1.52       6.26      19.06
H      -0.30       5.43      18.09
H      -0.72       8.29      20.27
H       1.98       9.31      19.23
H       2.93       7.61      17.52
H       0.35       9.96      18.97
H       1.76       6.44      16.88
C       1.05      10.74      14.42
C       1.93       6.40      19.07
C      -0.54       6.37      18.61
C      -0.53       7.55      17.58
C       1.06       9.90      15.60
C       0.50       6.62      19.73
C       1.95       7.16      17.69
C       0.89       8.27      17.69
C       0.93       9.04      19.04
C       0.36       8.13      20.16
C       1.05       9.17      16.56
C       0.34       5.73      20.85
C       0.33       5.01      21.83
C       0.34       4.18      23.02
C       2.17       4.97      18.83
C      -0.74       7.01      16.23
C      -1.56       8.56      17.83
C       0.93       8.44      21.47
C       2.99       6.88      19.97
N       2.38       3.85      18.59
N      -0.92       6.55      15.17
N      -2.36       9.38      18.06
N       1.34       8.72      22.52
N       3.85       7.27      20.65
O       2.19      11.03      13.93
O      -0.10      11.08      13.99
