16

O       9.01       5.43      13.19
O       9.05      -1.88       8.69
C       9.12      -2.05       9.95
O       9.15      -3.17      10.58
S       9.48       1.62      13.92
S       9.03       0.69       9.88
O       9.71       4.29      15.04
Cl       8.98       4.14      10.49
H       9.41      -1.50      12.79
C       9.15       2.93      11.68
C       9.31      -0.66      12.11
C       9.31       3.12      13.05
C       9.16      -0.81      10.75
C       9.32       0.71      12.46
C       9.16       1.56      11.35
C       9.35       4.37      13.81
