23

H       7.30       9.42       7.27
H       2.18      11.69       9.21
H       6.15      11.79       5.68
H       7.17      11.89       7.15
H       5.13       8.32       4.18
H       2.30       9.20       9.25
C       4.24       7.59       8.18
C       3.03      11.17       8.75
C       4.02      11.96       8.12
C       5.07      11.25       7.55
C       6.32      11.38       6.69
C       6.40       9.78       6.76
C       3.93      13.44       8.08
C       6.34       9.08       5.42
C       5.14       9.86       7.60
C       4.17       9.08       8.20
C       3.09       9.78       8.78
O       5.40       7.07       8.16
O       5.07       8.82       5.02
O       3.13       6.96       8.16
O       5.02      14.08       7.88
O       2.78      13.96       8.25
O       7.32       8.78       4.75
