40

H       3.11       9.94      16.66
H       2.96       7.81      17.99
H       2.38       4.11      19.07
H       2.25       6.42      22.70
H       2.75      13.24      20.34
H       1.18       8.25      21.83
H       4.03       1.31      21.41
H       0.65       4.21      25.07
C       2.13       1.76      23.13
C       2.21      12.35      17.34
C       2.18      11.13      18.20
C       2.68       9.93      17.66
C       2.61       8.76      18.40
C       2.07       8.79      19.69
C       1.63      10.01      20.28
C       1.65      11.17      19.50
C       2.28       4.16      20.15
C       2.19       5.41      20.79
C       2.17       5.47      22.19
C       2.16       4.29      22.94
C       2.17       3.03      22.31
C       2.30       2.98      20.90
C       1.02      12.45      20.03
C       1.16      10.15      21.72
C       2.61       1.75      20.11
C       2.47       4.42      24.40
N       1.94       7.63      20.48
N       2.28       6.53      19.94
O       1.10       1.00      22.98
O       3.09       1.54      23.93
O       1.24      13.16      17.45
O       3.21      12.47      16.55
O       1.76      13.48      20.38
O      -0.21      12.50      20.00
O       0.87       9.03      22.39
O       1.06      11.26      22.22
O       3.54       0.91      20.66
O       2.13       1.53      19.02
O       1.63       4.06      25.33
O       3.60       4.84      24.65
