32

C       3.85       0.49      25.46
N       7.36       2.46      19.31
O       4.47       3.32      15.22
O       2.20       3.26      15.29
H       1.66       0.75      23.98
H       1.32       2.31      17.40
H       0.32       1.04      21.90
H       0.22       1.56      19.48
H       5.92       1.29      23.90
H       7.06       1.95      21.79
O       2.76       0.27      26.05
O       5.03       0.24      25.94
H       5.56       2.83      17.25
O       7.41       3.15      18.28
O       8.35       1.93      19.85
C       3.37       3.07      15.80
C       2.28       2.28      17.92
C       2.34       1.95      19.28
C       2.47       1.34      22.05
C       1.22       1.31      21.35
C       1.16       1.60      20.02
C       2.56       1.02      23.41
C       3.80       1.00      24.06
C       4.69       2.58      17.84
C       4.81       2.28      19.20
C       3.61       1.97      19.94
C       6.05       2.23      19.94
C       6.09       1.96      21.28
C       4.91       1.67      22.02
C       3.66       1.67      21.33
C       4.97       1.33      23.38
C       3.44       2.60      17.21
