86

H       3.66       0.00       1.09
H       3.66      -0.00      -1.09
H       3.66      -5.12       1.35
H       3.66       5.12       1.35
H       3.66      -5.12      -1.35
H       3.66       5.12      -1.35
H       3.66      -1.35       5.11
H       3.66       1.35       5.11
H       3.66      -1.35      -5.11
H       3.66       1.35      -5.11
H       5.81      -3.62       3.61
H       1.51       3.62       3.61
H       1.51      -3.62      -3.61
H       5.81       3.62      -3.61
H       1.51       3.62      -3.61
H       5.81      -3.62      -3.61
H       5.81       3.62       3.61
H       1.51      -3.62       3.61
H       5.81      -5.35       5.43
H       1.52       5.35       5.43
H       1.52      -5.35      -5.43
H       5.81       5.35      -5.43
H       1.52       5.35      -5.43
H       5.81      -5.35      -5.43
H       5.81       5.35       5.43
H       1.52      -5.35       5.43
C       3.66      -2.46       2.44
C       3.66       2.46       2.44
C       3.66      -2.46      -2.44
C       3.66       2.46      -2.44
C       3.66      -2.87       1.09
C       3.66       2.87       1.09
C       3.66      -2.87      -1.09
C       3.66       2.87      -1.09
C       3.66      -4.27       0.68
C       3.66       4.27       0.68
C       3.66      -4.27      -0.68
C       3.66       4.27      -0.68
C       3.66      -1.13       2.89
C       3.66       1.13       2.89
C       3.66      -1.13      -2.89
C       3.66       1.13      -2.89
C       3.66      -0.69       4.25
C       3.66       0.69       4.25
C       3.66      -0.69      -4.25
C       3.66       0.69      -4.25
C       3.66      -3.51       3.50
C       3.66       3.51       3.50
C       3.66      -3.51      -3.50
C       3.66       3.51      -3.50
C       4.87      -4.00       4.01
C       2.45       4.00       4.01
C       2.45      -4.00      -4.01
C       4.87       4.00      -4.01
C       2.45       4.00      -4.01
C       4.87      -4.00      -4.01
C       4.87       4.00       4.01
C       2.45      -4.00       4.01
C       4.87      -4.96       5.02
C       2.45       4.96       5.02
C       2.45      -4.96      -5.02
C       4.87       4.96      -5.02
C       2.45       4.96      -5.02
C       4.87      -4.96      -5.02
C       4.87       4.96       5.02
C       2.45      -4.96       5.02
C       3.66      -5.44       5.54
C       3.66       5.44       5.54
C       3.66      -5.44      -5.54
C       3.66       5.44      -5.54
C       3.66      -6.46       6.63
C       3.66       6.46       6.63
C       3.66      -6.46      -6.63
C       3.66       6.46      -6.63
N       3.66      -2.04      -0.00
N       3.66       2.04       0.00
N       3.66       0.00       2.11
N       3.66       0.00      -2.11
O       4.80      -6.85       7.05
O       2.52       6.85       7.05
O       2.52      -6.85      -7.05
O       4.80       6.85      -7.05
O       2.52       6.85      -7.05
O       4.80      -6.85      -7.05
O       4.80       6.85       7.05
O       2.52      -6.85       7.05
