16

O      18.70       3.79      30.86
F      21.63      -1.60      27.32
F      21.20       3.92      29.53
O      17.65       1.76      30.75
S      23.21       1.96      27.68
S      19.62       0.36      29.17
C      24.19      -0.23      26.31
C      18.61       2.57      30.50
O      25.12       0.61      26.01
O      24.13      -1.45      25.96
C      21.96      -0.32      27.59
C      20.87       2.65      29.27
C      23.11       0.31      27.14
C      19.71       2.02      29.70
C      21.70       1.80      28.50
C      21.14       0.52      28.37
