14

O       7.13       3.00       7.75
C       8.60       5.32      11.07
H       6.72       2.77       6.87
C       6.54       4.77       9.89
C      10.28       4.41       8.88
O      10.96       3.53       8.26
C       8.79       4.32       8.83
C       8.06       4.76       9.88
O      10.74       5.36       9.59
N       8.90       5.79      12.10
O       6.03       5.63       9.11
O       5.98       3.98      10.69
O       8.59       4.21       6.46
C       8.17       3.84       7.55
