50

C      -3.52      14.13       0.50
C      -4.80      14.42       1.05
H      -6.38      12.92       1.59
C     -10.90      22.86       0.45
H      -8.25      17.51       2.39
H      -9.06      19.85       2.58
H      -5.04      21.29       2.01
C     -10.44      21.77      -0.54
C     -11.36      20.55      -0.53
C      -3.01      19.85       1.76
H     -11.40      20.09       0.47
H     -12.38      20.82      -0.82
H     -10.39      22.21      -1.55
H      -9.41      21.47      -0.28
C      -2.41      15.07       0.16
C      -9.99      24.04       0.46
C      -2.78      16.15      -0.87
C      -1.63      17.13      -1.10
C      -8.26      25.44       0.64
N      -4.52      12.20       0.84
H      -7.31      25.93       0.84
H     -10.95      22.43       1.46
H     -11.92      23.18       0.18
N      -3.38      12.80       0.39
N     -10.26      25.16      -0.22
N      -9.20      26.03      -0.12
O      -3.97      18.80       1.81
H      -3.00      20.43       2.69
H      -3.20      20.52       0.91
H      -2.04      19.35       1.62
H      -1.33      17.60      -0.16
H      -0.75      16.61      -1.51
H      -1.91      17.92      -1.81
H      -3.09      15.68      -1.81
H      -3.66      16.70      -0.50
H      -2.08      15.57       1.08
H      -1.55      14.49      -0.21
C      -5.39      13.16       1.22
C      -8.70      24.16       1.03
H     -11.00      19.78      -1.23
C      -8.00      19.65       2.43
C      -7.11      20.73       2.26
C      -5.73      20.46       2.11
C      -5.27      19.14       2.01
C      -6.19      18.06       2.06
C      -7.55      18.34       2.32
C      -7.60      22.04       2.08
C      -5.74      16.75       1.77
C      -5.32      15.66       1.42
C      -8.04      23.11       1.68
