28

C      11.06       9.54      17.91
C      14.21      12.48      12.02
H      12.43      15.08      12.92
H      10.96      14.88      14.85
C      10.27      10.28      17.01
H       8.46      13.19      15.37
C      13.09      12.93      12.74
H       9.77      14.41      13.61
C      10.39      12.09      15.27
C       9.10      10.55      17.75
C      11.10      12.74      14.27
H       9.64      13.71      16.60
C      10.72      10.81      15.73
H      12.07       9.15      17.77
H      14.61      11.47      11.90
C      12.19      12.17      13.60
H      13.20      10.26      13.41
C      12.41      10.81      13.93
H       8.21      11.09      17.45
N      14.16      14.67      11.76
H      11.97       9.13      15.18
N      10.43       9.41      19.09
N      14.83      13.53      11.45
C      11.71      10.16      14.95
N       9.20      10.02      18.99
C      13.11      14.32      12.54
C      10.35      14.05      14.47
C       9.53      13.30      15.59
