22

H       2.80       6.67       4.42
H       2.69       6.67       1.92
H       7.01       6.67       1.87
H       6.96       6.67       4.38
H       1.77       6.66      -1.87
H       6.08       6.66      -1.92
H       5.98       6.66      -4.42
H       1.82       6.66      -4.38
C       3.71       6.67       3.82
C       3.65       6.66       2.44
C       4.85       6.66       1.71
C       6.06       6.67       2.41
C       6.04       6.67       3.81
C       2.71       6.66      -2.41
C       3.92       6.66      -1.71
C       5.13       6.66      -2.44
C       5.07       6.66      -3.82
C       2.74       6.66      -3.81
N       4.88       6.67       4.50
N       4.95       6.66       0.30
N       3.83       6.67      -0.30
N       3.90       6.66      -4.50
