13

C      11.49       9.43      11.07
O      14.47      10.23      13.59
C      12.29      10.82      12.81
O      12.56       9.73      11.94
C      13.50      11.05      13.69
H      11.25      10.29      10.42
O      10.98       7.85       9.43
H      11.42      10.59      13.45
C      11.88       8.26      10.19
H      10.59       9.17      11.65
O      13.40      12.05      14.45
O      13.09       7.83      10.28
H      12.07      11.73      12.22
