22

H       6.40       2.08      10.65
H       6.53      -2.90      10.50
C       8.17       2.60       8.86
C       8.20      -3.22       8.60
C       8.19       1.10       8.83
C       7.32       0.35       9.68
C       9.04       0.44       7.94
C       6.44       0.99      10.59
C       5.59       0.25      11.39
C       8.21      -1.72       8.69
C       9.05      -0.98       7.87
C       7.34      -1.08       9.61
C       6.49      -1.81      10.49
C       5.62      -1.17      11.34
Cl      10.05      -1.76       6.70
Cl      10.04       1.33       6.85
Cl       4.50       1.07      12.45
Cl       4.57      -2.11      12.33
O       9.25       3.19       9.14
O       9.29      -3.82       8.86
O       7.09      -3.77       8.32
O       7.06       3.15       8.58
