36

H       5.59       3.87       5.89
H       8.08       5.67       3.98
H       7.79       4.46       5.24
H       7.48       6.12       6.83
H       4.44       6.04       3.05
H       4.46       7.96       4.37
H       3.82       6.28       5.98
H       6.17       8.24       4.04
H       2.69       5.38       7.99
H       3.47       3.83       7.63
H       3.64       4.55       9.24
H       5.75       4.96       7.95
H       4.91       6.48       8.29
C       5.71      10.23       8.40
C       5.09       4.67       5.32
C       7.39       5.37       4.77
C       7.25       6.48       5.82
C       5.69       9.12       7.48
C       6.02       5.03       4.13
C       4.82       5.89       6.22
C       5.81       7.05       5.81
C       5.44       7.49       4.37
C       5.45       6.28       3.42
C       5.70       8.17       6.71
C       6.14       3.91       3.22
C       6.15       2.97       2.46
C       6.14       1.87       1.52
C       4.84       5.54       7.72
C       3.60       4.78       8.17
Cl       3.57       3.90       4.75
Cl       8.46       7.79       5.55
Cl       6.40       6.65       1.93
O       4.58      10.65       8.80
O       6.85      10.66       8.75
O       4.99       1.44       1.17
O       7.27       1.44       1.13
