14

Cl      13.29       8.11      12.39
C      15.58       8.09      10.94
C      14.18       8.08       8.46
N      10.92       8.08       9.70
C      15.58       8.07       8.46
C      14.18       8.09      10.94
C      16.27       8.08       9.70
C      13.49       8.09       9.70
C      17.68       8.08       9.70
C      12.08       8.09       9.70
Cl      16.47       8.05       7.01
Cl      13.30       8.08       7.01
Cl      16.47       8.09      12.39
N      18.84       8.09       9.70
