25

H      -1.57       4.75       2.28
H      -0.08       5.14       1.38
H       1.31       4.18       3.20
H       0.27       2.92       5.08
H      -1.35       3.47       4.60
H      -0.42       2.38       3.54
C       1.40       5.71       6.43
C      -0.43       6.39       3.19
C      -1.41       8.33       1.99
C      -0.54       5.13       2.37
C       0.29       4.43       3.53
C       0.26       5.78       4.23
C       0.62       6.45       5.39
C       0.28       7.83       5.45
C      -0.34       8.48       4.34
C      -0.71       7.75       3.18
C       0.61       8.61       6.60
C      -0.64       9.87       4.44
C      -0.34       3.23       4.23
N       0.88       9.27       7.52
N      -0.89      11.01       4.54
O       2.22       4.87       5.96
O       1.19       5.94       7.67
O      -2.31       7.58       1.50
O      -1.03       9.46       1.53
