36

O      27.17      20.41      18.66
H      26.94      18.79      19.06
O      27.65      21.47      16.72
H      27.88      16.91      12.97
H      26.94      14.79      16.85
H      27.88      20.93      15.15
H      26.94      12.82      15.77
H      27.88      10.94       9.68
H      26.94       8.80      13.59
H      27.88      14.94      11.89
O      26.91      17.85      18.74
O      27.91      20.16      14.53
O      27.91      17.84      13.28
O      26.91      15.55      17.46
O      26.91      11.89      15.46
O      27.91      14.18      11.28
O      27.91      11.88      10.00
O      26.91       9.57      14.21
C      27.41       9.35      11.34
C      27.41      20.39      17.39
C      27.41      19.11      16.69
C      27.15      17.90      17.41
C      27.16      16.68      16.73
C      27.41      16.64      15.34
C      27.66      17.83      14.62
C      27.67      19.06      15.28
C      27.41      15.40      14.66
C      27.41      14.33      14.07
C      27.41      13.09      13.40
C      27.15      11.90      14.11
C      27.15      10.67      13.45
C      27.41      10.62      12.04
C      27.66      11.83      11.32
C      27.66      13.05      12.00
O      27.17       8.26      12.01
O      27.65       9.33      10.07
