32

H       5.20       9.70       4.73
H       5.23       9.81       2.27
H       5.22       5.46       2.17
H       5.19       5.43       4.58
H       5.26      10.95      -2.00
H       5.25       6.60      -2.16
H       5.27       6.75      -4.62
H       5.29      11.02      -4.41
H       5.21       5.74       0.59
H       5.26      10.66      -0.45
C       5.16       7.51       6.31
C       5.30       8.97      -6.18
C       5.18       7.56       4.82
C       5.20       8.78       4.14
C       5.22       8.84       2.75
C       5.22       7.66       1.96
C       5.21       6.44       2.68
C       5.19       6.38       4.06
C       5.23       7.65       0.49
C       5.24       8.74      -0.36
C       5.26       9.98      -2.52
C       5.26       8.74      -1.83
C       5.26       7.58      -2.63
C       5.27       7.66      -4.02
C       5.29       8.89      -4.68
C       5.28      10.06      -3.91
O       5.18       6.36       6.86
O       5.14       8.63       6.93
O       5.33      10.13      -6.70
O       5.29       7.86      -6.81
O       5.23       6.41      -0.11
O       5.24       9.98       0.25
