14

Cl      12.95       5.29       9.11
Cl      14.51       8.51       9.12
O      17.14       6.24       8.25
O      10.33       7.56       8.23
C      16.72       7.41       7.99
C      10.75       6.39       7.97
C      15.22       7.53       7.90
C      12.25       6.27       7.88
C      14.47       6.90       6.97
C      13.01       6.91       6.97
O      17.41       8.46       7.83
O      10.07       5.34       7.81
Cl      12.25       7.79       5.68
Cl      15.23       6.03       5.68
