13

C      10.01       1.94       4.68
H      10.19       1.05       4.04
O       9.77       3.08       3.88
O      11.42       5.08       1.48
C       8.80       1.69       5.57
H      11.19       2.61       2.42
O       9.28       5.02       2.23
O       8.86       0.66       6.28
H      11.74       3.73       3.71
C      10.89       3.45       3.08
O       7.85       2.54       5.52
H      10.89       2.09       5.33
C      10.50       4.62       2.19
