42

H      16.07       3.68      22.14
C      17.10       3.70      21.73
C      19.28       2.53      20.25
H      19.68       1.37      22.05
H      19.93       1.80      19.76
C      17.24       1.05      20.20
C      16.98       1.17      21.73
H      15.92       1.42      21.88
C      17.45       2.28      24.89
H      15.93       3.30      20.00
C      16.97       3.58      20.18
C      17.84       2.39      19.67
C      19.26       2.35      21.77
C      17.80       2.42      22.27
H      14.89      -0.96      18.09
S      15.48       0.80      19.36
N      17.25       4.83      19.44
H      17.77      -0.90      20.31
H      18.27      -0.14      18.91
N      17.84       4.89      22.15
H      19.64       3.53      19.97
H      16.80      -0.12      23.31
N      18.11      -0.03      19.91
H      18.21      -0.30      22.48
N      17.21      -0.10      22.38
O      18.12       3.84      15.25
H      16.35       5.24      19.19
H      17.66       4.57      18.54
H      17.36       5.71      21.78
H      17.78       4.95      23.17
H      19.85       3.12      22.27
O      17.12       0.77      26.60
C      17.70       2.39      23.70
C      17.95       2.37      18.23
C      18.11       2.40      17.03
C      18.45       2.69      15.66
O      14.51       0.48      20.40
O      15.13       1.92      18.48
O      15.78      -0.42      18.47
C      16.81       1.88      26.10
O      15.88       2.68      26.52
O      19.11       1.79      15.01
