16

C      -4.98       4.86       8.11
C      -4.19       6.07       8.44
O      -6.74       3.37      11.04
C      -6.28       3.00       8.11
C      -7.15       1.84       8.44
H      -4.14       6.75       7.58
H      -3.16       5.80       8.73
H      -4.64       6.59       9.30
C      -5.78       4.03       8.95
C      -6.01       4.20      10.36
H      -6.54       0.97       8.73
H      -7.76       1.56       7.58
N      -5.02       4.34       6.87
H      -7.79       2.08       9.30
N      -5.81       3.22       6.87
O      -5.49       5.17      11.04
