30

O       9.38       8.79      14.62
H      10.14       9.52      21.88
H       9.65       9.04      19.64
O      10.89      12.77      25.77
O      13.16      12.75      25.57
H      11.29       8.42      19.45
H      10.42      12.55      18.60
H       9.11      11.45      19.02
H       9.44      11.87      21.30
H      11.82       9.02      21.65
H      10.64      13.09      20.85
H      13.16      10.01      18.79
H      12.80      11.67      18.34
H      13.58      10.73      20.98
H      13.07      12.37      20.56
C      11.02       9.66      21.24
C      11.48      11.14      21.34
C      12.77      11.32      20.51
C      12.54      10.87      19.05
C      11.69      11.51      22.72
C      10.82      10.10      17.46
C      10.66       9.73      16.32
C      10.57       9.09      15.04
C      10.71       9.30      19.77
C      11.96      12.48      25.16
C      10.16      11.69      19.23
C      10.37      12.03      20.73
C      11.85      11.85      23.88
C      11.05      10.49      18.84
O      11.65       8.83      14.44
