57

C       4.19      13.94       1.19
C       3.24      13.15       1.88
C       2.14      12.99       1.06
Si       0.58      11.98       1.14
H       0.74       7.02       5.99
H       3.30       7.73       2.57
N       3.10       6.15       3.97
N       2.29       5.92       5.06
H       0.10       7.96      -4.46
H      -2.86       8.56      -1.36
N      -2.78       7.39      -3.13
N      -1.84       7.20      -4.11
H       2.32      15.10      -2.59
H       6.26      15.46      -0.81
N       5.40      16.10      -2.64
N       4.15      15.99      -3.20
H      -1.58      15.87       4.39
H      -4.82      16.25       1.54
N      -4.30      17.25       3.32
N      -3.27      17.14       4.23
O       1.38       9.83       2.77
O      -1.24      13.95       2.09
O      -0.43      10.18      -0.83
O       2.39      13.67      -0.13
H      -2.11      12.30      -0.63
H      -3.93      14.17       0.20
H       5.16      14.27       1.54
H       3.34      12.72       2.87
H       2.64      11.30      -1.25
H       1.79       9.56      -3.18
H      -0.97      11.77       4.02
C       1.48       6.99       5.20
C       1.75       7.93       4.19
C       2.79       7.35       3.45
C      -0.77       7.96      -3.82
C      -1.00       8.66      -2.62
C      -2.29       8.27      -2.23
C       3.36      15.31      -2.35
C       4.09      14.97      -1.20
C       5.38      15.49      -1.43
C      -2.46      16.13       3.82
C      -2.96      15.58       2.63
C      -4.12      16.33       2.36
H      -0.34       9.60       5.57
C       1.07       9.18       3.94
C       0.10       9.88       4.62
C      -0.23      11.01       3.81
C       0.57      10.96       2.69
C      -2.46      14.52       1.79
C      -2.98      13.93       0.66
C      -2.03      12.96       0.23
C      -0.98      12.99       1.11
C      -0.06       9.55      -1.99
C       1.23       9.91      -2.32
C       1.67      10.81      -1.31
C       0.64      10.96      -0.41
C       3.64      14.24      -0.04
