54

C       3.18      18.52      13.86
C       2.46      17.55      14.59
C       3.07      16.42      15.12
H       3.63      14.14      16.26
C       5.45      19.13      12.83
H       7.23      13.96      17.04
N       4.64      14.15      16.30
H       8.24      12.07      18.25
N       9.04       6.43      20.76
H       8.63      10.95      20.01
O       6.63      18.76      12.51
H       9.81       9.02      20.99
O       5.01      20.30      12.50
H       8.50       5.57      20.72
O       2.57      19.63      13.44
H       8.87       4.28      22.49
O       8.26       2.33      23.78
H       6.81       3.12      21.82
O       9.86       0.78      23.93
H       5.93       5.36      21.05
O       5.47       1.30      23.00
H       6.87       6.37      19.29
O       6.52      15.15      15.44
H       5.69       8.29      18.30
O      11.18       7.22      21.08
H       4.40      10.12      18.42
H       3.41      11.99      17.18
H       6.21      16.92      13.99
H       1.39      17.72      14.75
H       2.43      15.73      15.69
C       5.29      15.12      15.56
C       5.25      13.10      17.01
C       6.62      13.12      17.35
C       7.17      12.05      18.03
C       6.42      10.92      18.41
C       7.07       9.77      19.06
C       8.24       9.94      19.83
C       8.91       8.87      20.40
C       8.42       7.56      20.21
C      10.35       6.30      21.15
C      10.75       4.95      21.65
C       9.92       4.04      22.29
C      10.39       2.80      22.78
C       4.93       2.45      22.59
C       5.76       3.39      21.94
C       5.28       4.61      21.51
C       9.45       1.95      23.53
C       7.25       7.38      19.45
C       6.59       8.47      18.90
C       5.04      10.94      18.11
C       4.47      12.01      17.42
C       4.45      16.19      14.95
C       5.15      17.10      14.16
C       4.57      18.25      13.62
