24

O       1.11      11.31       7.27
H       2.86       5.99       7.01
H       1.08       5.98       7.01
O       2.94      12.00       6.13
O       0.99       5.91       2.61
H       1.06       8.15       8.26
H       2.84       8.16       8.27
O       2.81       5.26       3.78
H       2.19      11.88       4.00
H       1.46      11.08       2.70
H       1.73       7.82       1.65
H       2.46       9.34       1.69
C       2.02      11.15       6.39
C       1.90       6.11       3.48
C       1.91       7.40       4.20
C       2.01       9.88       5.63
C       1.96       7.45       5.59
C       2.02       9.86       4.22
C       1.96       8.65       6.28
C       1.90       8.63       3.51
C       1.96       6.61       6.85
C       1.96       7.98       7.65
N       2.15      11.03       3.45
N       1.77       8.72       2.12
