16

H       0.52       4.74      11.24
O       1.52       4.74       8.93
C       0.29       7.92      10.01
C      -0.65       8.44      10.90
C      -1.11       7.65      11.97
C      -0.67       6.33      12.11
C       0.20       5.78      11.17
C       0.70       6.59      10.14
O      -2.93       9.04      12.71
O      -1.74       7.82      14.21
O       2.61       6.72       8.71
H      -1.02       5.74      12.95
C      -1.99       8.21      13.03
H       0.70       8.53       9.21
H      -1.01       9.46      10.80
C       1.67       5.97       9.19
