66

H       3.04       8.26      11.78
H       4.74       4.84      16.13
H       5.00       9.11      16.07
H       6.41       5.61      11.79
H       6.64       5.07      19.87
H       7.19       2.80      20.64
H       5.82       0.84      19.90
H       3.88       1.21      18.38
H       3.34       3.50      17.59
H       3.79      10.67      17.49
H       4.49      12.87      18.38
H       6.34      13.02      20.05
H       7.49      10.93      20.79
H       6.81       8.74      19.86
H       1.96       6.67      15.54
H       0.01       7.83      16.55
H      -0.43      10.23      16.04
H       1.08      11.45      14.47
H       3.01      10.27      13.43
H       7.51       7.21      15.55
H       9.24       5.96      16.81
H       9.51       3.51      16.46
H       8.08       2.33      14.79
H       6.35       3.59      13.53
C       4.35       7.03      20.22
C       5.71       6.22      13.75
C       3.79       7.70      12.34
C       5.67       6.19      12.35
C       4.73       6.95      11.65
C       4.73       6.96      14.45
C       4.73       6.96      10.15
C       4.72       5.79      16.66
C       4.87       8.18      16.63
C       4.95       4.45      18.67
C       6.03       4.22      19.54
C       6.35       2.94      19.97
C       4.75       5.78      18.06
C       5.58       1.85      19.56
C       4.49       2.05      18.70
C       4.19       3.34      18.26
C       5.25       9.55      18.62
C       4.61      10.73      18.20
C       5.00      11.97      18.71
C       6.03      12.05      19.65
C       6.69      10.88      20.06
C       6.30       9.65      19.54
C       2.63       8.39      14.42
C       4.91       8.23      18.03
C       1.77       7.72      15.31
C       0.68       8.38      15.88
C       0.43       9.72      15.59
C       1.27      10.40      14.71
C       2.36       9.74      14.13
C       6.80       5.49      14.46
C       7.63       6.14      15.38
C       8.61       5.43      16.09
C       8.77       4.06      15.89
C       7.96       3.40      14.95
C       4.74       7.02      18.76
C       6.99       4.11      14.24
C       4.74       6.98      15.93
C       3.74       7.69      13.74
O       3.88       5.96      20.71
O       4.45       8.13      20.87
O       5.04       5.87       9.57
O       4.42       8.06       9.60
