32

H       0.74      18.89       7.40
H       0.74      16.67       8.52
H       2.98      15.03       5.21
H       2.98      13.49      11.25
H       0.74      11.84       7.94
H       0.74       9.63       9.07
H       1.94      13.52       6.88
H       1.94      14.99       9.58
H       3.28      18.20       3.73
H       3.28      10.31      12.73
C       1.88       8.98      11.40
C       1.88      19.54       5.06
C       1.92      18.23       5.72
C       1.26      18.04       6.95
C       1.27      16.81       7.58
C       1.88      15.69       6.95
C       2.50      15.87       5.71
C       2.58      17.13       5.11
C       1.88      14.37       7.57
C       1.88      14.14       8.90
C       2.50      12.65      10.75
C       1.88      12.82       9.51
C       1.27      11.71       8.88
C       1.26      10.48       9.51
C       1.92      10.28      10.74
C       2.58      11.39      11.35
O       2.80       8.72      12.28
O       0.95       8.15      11.11
O       2.80      19.79       4.18
O       0.95      20.36       5.35
O       3.25      17.23       3.95
O       3.25      11.28      12.52
