30

C       7.58       5.99      15.46
C       7.52       5.91      16.85
C       7.07       7.00      17.61
H       5.84       5.98      23.91
O       7.95       6.39      12.72
O       8.14       8.13      26.31
H       6.24       9.09      15.03
O       6.45       8.11      12.76
O       6.40       6.65      26.18
H       7.97       5.16      14.87
H       6.99       5.90      19.48
H       8.60       9.47      21.69
H       6.20       8.99      17.51
H       8.65       9.22      24.17
H       7.87       5.01      17.36
H       7.46       8.94      19.52
H       5.81       6.19      21.43
C       7.24       7.95      19.92
C       7.07       6.91      19.07
C       7.12       7.14      14.80
C       7.23       7.82      21.38
C       8.00       8.70      22.17
C       7.18       7.21      13.32
C       7.27       7.44      25.67
C       7.26       7.58      24.19
C       6.46       6.73      23.41
C       8.03       8.56      23.56
C       6.45       6.84      22.03
C       6.61       8.15      16.94
C       6.62       8.21      15.55
