24

H       2.75       6.99       4.72
H       2.61       6.99       2.31
H       6.94       6.99       2.23
H       6.90       6.99       4.66
H       1.73       6.99      -2.23
H       6.06       6.99      -2.31
H       5.93       6.98      -4.72
H       1.78       6.99      -4.66
C       3.67       6.99       4.14
C       3.60       6.99       2.75
C       4.78       6.99       1.97
C       5.97       6.99       2.72
C       5.96       6.99       4.10
C       4.84       6.99       0.48
C       3.84       6.99      -0.48
C       2.70       6.99      -2.72
C       3.90       6.99      -1.97
C       5.08       6.99      -2.75
C       5.01       6.99      -4.14
C       2.72       6.99      -4.10
N       4.82       6.99       4.82
N       3.86       6.99      -4.82
Cl       6.48       6.99      -0.10
Cl       2.19       6.99       0.10
