32

O       6.65       6.01       6.99
O      10.33      10.34       8.23
H      11.27       7.40       5.91
H       8.75       6.16       9.87
H       9.64      10.92       6.09
H      10.01       2.71       9.80
H      12.34       9.16      10.96
H       8.33       3.79       4.91
C       7.22       7.09       7.36
C      12.85       6.50       8.02
C       9.80       8.11       7.63
C      10.25       5.47       8.19
C      10.43       7.55       8.96
C       9.66       6.01       6.83
C      10.71       7.13       6.80
C       9.33       6.44       8.99
C      11.37       6.60       8.11
C       8.69       6.98       7.64
C       9.83       9.59       7.40
C      10.43       4.03       8.48
C      10.82       8.40      10.13
C       9.40       5.17       5.63
O       9.39       9.97       6.19
O      10.59       3.20       7.58
O      10.33       3.67       9.78
O      10.05       8.89      10.95
O      12.15       8.56      10.21
O      10.03       5.31       4.58
O       8.44       4.24       5.77
O       6.68       8.22       7.52
O      13.41       5.36       8.12
O      13.41       7.59       7.71
