32

H       3.11       6.74       4.78
H       3.17       7.28       2.34
H       7.11       5.18       4.54
H       3.13       6.07      -4.58
H       7.29       7.14      -4.73
H       7.32       7.37      -2.23
H       7.32       5.64       0.93
H       8.13       5.04       2.32
H       3.06       5.97      -0.91
H       2.18       5.60      -2.35
C       5.17       6.53      -6.27
C       5.05       5.52       6.23
C       5.10       5.91       4.79
C       3.99       6.51       4.18
C       4.03       6.82       2.83
C       5.17       6.51       2.05
C       6.31       5.93       2.67
C       6.25       5.64       4.05
C       5.18       6.71       0.65
C       5.28       6.78      -0.57
C       5.26       6.76      -1.98
C       4.06       6.38      -2.65
C       4.04       6.33      -4.05
C       5.21       6.58      -4.78
C       6.40       6.93      -4.13
C       6.41       7.05      -2.75
N       7.44       5.67       1.93
N       2.92       6.12      -1.91
O       4.05       6.78      -6.82
O       3.91       5.60       6.81
O       6.13       5.12       6.78
O       6.26       6.30      -6.88
