24

C       5.33       5.37      20.82
H       4.95       9.39      21.72
C       4.66       4.66      19.83
H       5.62      11.44      22.75
C       5.85       7.49      21.96
H       6.76      12.64      24.60
H       8.38       9.14      26.08
C       5.66       8.78      22.29
C       6.35       9.49      23.36
H       7.27       7.77      24.33
C       6.22      10.89      23.46
C       6.87      11.57      24.48
C       7.76       9.61      25.31
C       7.14       8.85      24.33
N       3.85       5.26      18.94
N       7.64      10.95      25.39
H       3.03       7.03      18.25
H       4.16       8.45      19.94
H       5.99       4.84      21.50
C       3.68       6.59      19.00
H       6.60       6.89      22.50
C       4.32       7.37      19.95
H       4.79       3.59      19.73
C       5.16       6.76      20.90
