30

C      19.70      19.93      11.49
C      20.67      19.35      12.32
C      22.07      19.55      12.11
C      17.91      18.93      12.80
H      20.00      20.55      10.65
H      22.42      20.18      11.29
H      16.85      18.79      12.96
H      21.46      15.84      16.99
H      19.04      16.24      16.38
H      24.62      17.70      14.75
C      18.85      18.32      13.64
C      18.49      17.48      14.74
C      21.76      16.48      16.16
C      20.79      17.07      15.34
C      19.39      16.87      15.56
C      23.55      17.53      14.89
O      17.76      20.88       9.75
O      16.11      20.34      11.21
C      22.61      18.12      14.05
C      22.97      18.96      12.94
C      18.34      19.73      11.73
C      20.25      18.52      13.41
C      23.13      16.70      15.94
C      21.21      17.91      14.26
O      25.34      16.49      16.78
O      23.74      15.12      17.60
F      24.31      19.17      12.74
F      17.15      17.28      14.95
C      17.32      20.36      10.83
C      24.15      16.06      16.84
