16

H       0.41      11.01       3.30
O       0.32       8.88      -2.37
C       2.67      10.42       1.89
H      -2.40      10.38       0.08
O      -1.77       9.76      -2.24
C       0.20      10.74       2.26
C      -0.62       9.49      -1.76
O       2.89       9.86       3.05
C      -1.11      10.77       1.77
C      -0.33       9.95      -0.37
O       3.53      10.99       1.18
C      -1.38      10.38       0.45
C       0.99       9.97       0.10
H       1.80       9.67      -0.56
N      -2.20      11.17       2.60
C       1.25      10.36       1.41
