14

H      11.47       1.08       8.00
H      10.23      -1.12       8.02
H      14.49       0.74       8.54
C      11.14      -3.09       8.34
C      13.58       2.71       8.20
C      13.54       1.23       8.32
C      11.18      -1.61       8.24
C      12.40       0.53       8.21
C      12.32      -0.90       8.36
H      13.25      -1.45       8.57
O      12.52       3.32       7.83
O      12.20      -3.70       8.68
O      14.70       3.26       8.49
O      10.01      -3.63       8.05
