30

C      13.54       4.81      25.27
H      14.65       8.20      23.61
C      13.13       3.59      25.93
H      12.92       4.27      23.26
Br      12.47       2.17      24.86
H      14.20       3.13      29.86
Br      12.72       1.80      28.12
Cl      13.27       8.68      27.28
H      16.35       6.86      30.01
Cl      17.26       7.25      26.70
O      12.55       5.96      21.34
C      13.27       3.41      27.29
C      13.58       6.49      21.84
C      14.37       5.61      27.48
O      16.73       5.55      31.83
O      14.37       7.32      21.23
C      14.10       5.84      26.07
O      16.04       3.39      31.76
C      15.69       7.59      27.36
C      14.73       8.07      26.51
C      15.66       6.19      29.49
C      14.36       7.26      24.07
C      13.84       6.21      23.28
C      16.04       4.59      31.32
C      15.31       4.96      30.08
C      15.19       6.52      28.25
C      14.43       7.09      25.44
C      14.45       4.09      29.41
C      13.39       5.03      23.88
C      13.97       4.39      28.10
