39

C       8.14      17.62      12.12
C       7.19      17.57      13.29
C       5.79      17.60      13.13
C       4.95      17.68      14.25
C       5.49      17.76      15.54
C       6.88      17.64      15.69
C       7.71      17.52      14.59
C       5.19      17.53      11.77
C       4.65      18.09      16.79
C       5.11      17.31      18.02
C       5.35      15.94      17.88
C       5.65      15.13      18.98
C       5.79      15.72      20.25
F       2.52      18.63      15.73
C       5.25      17.89      19.29
F       2.96      16.51      16.10
F       4.58      20.33      15.85
C       3.14      17.77      16.59
C       4.78      19.64      17.00
F       3.89      20.11      17.92
F       2.44      17.83      17.76
F       6.03      19.96      17.44
C       5.62      17.10      20.37
C       5.82      13.66      18.68
C       6.03      14.97      21.51
H       3.88      17.71      14.06
H       7.31      17.65      16.69
H       8.78      17.42      14.72
H       5.29      15.48      16.89
H       5.75      17.55      21.36
H       5.08      18.95      19.46
O       8.34      18.79      11.62
O       8.69      16.56      11.74
O       5.73      18.19      10.80
O       4.19      16.78      11.55
O       6.77      13.32      17.91
O       4.98      12.78      19.11
O       5.38      13.88      21.72
O       6.78      15.45      22.41
