26

O      -1.10      13.33       1.73
O      -1.10       7.71       5.70
O       1.17       7.77       5.68
O       1.17      13.30       1.78
H       1.75      10.30       5.43
H       0.23      10.83       6.16
H       0.23      12.72       4.82
H       1.75      12.21       4.08
H       1.75       8.85       3.38
H       1.75      10.76       2.03
H      -1.98       9.07       3.69
H      -1.98      10.09       5.12
H      -1.98      11.99       3.77
H      -1.98      10.98       2.34
H       0.22       8.34       2.64
H       0.22      10.24       1.30
C       0.02       8.22       5.36
C       0.72      10.62       5.20
C       0.72      11.89       4.30
C       0.72       9.18       3.15
C      -1.45       9.90       4.18
C      -0.01       9.46       4.48
C      -0.01      11.60       2.98
C       0.72      10.44       2.26
C      -1.45      11.16       3.29
C       0.02      12.84       2.09
