30

S       2.04       6.83       1.60
S      -1.97      10.93       5.57
N       4.86       9.03       3.40
N      -4.76       8.92       3.51
H       4.76      10.56       4.80
H       2.25      10.58       4.88
H       4.80       7.50       1.99
H      -4.74      10.36       5.02
H      -4.63       7.50       2.01
H      -2.11       7.49       1.99
C       4.17       9.88       4.19
C       2.78       9.87       4.25
H       0.63       5.85       2.87
H      -0.37       9.71       6.26
C       2.07       8.94       3.47
C       2.81       8.07       2.64
C       4.20       8.15       2.63
C       0.66       8.91       3.54
C      -0.56       8.95       3.60
C      -1.97       8.96       3.58
C      -2.74       9.79       4.43
C      -4.13       9.74       4.37
C      -4.05       8.13       2.68
C      -2.66       8.12       2.68
O       1.59       5.74       2.71
O       3.08       6.21       0.84
O       0.86       7.38       1.00
O      -1.26       9.92       6.61
O      -3.01      11.58       6.31
O      -0.95      11.66       4.87
