16

O      11.09      15.31       6.77
C      15.87      12.91      10.51
O      15.74      12.53      11.70
H      11.36      14.10      10.53
C      12.31      14.45       8.63
H      13.47      13.30      11.63
C      12.30      14.07       9.98
O      16.94      12.82       9.81
C      13.47      13.62      10.59
H      15.59      13.77       7.94
O       9.94      14.52       8.53
C      14.66      13.51       9.86
H      13.48      14.64       6.86
C      14.67      13.89       8.51
C      13.50      14.37       7.91
C      11.03      14.80       7.93
