60

C       8.52       4.58      12.31
C       9.45       3.74      18.69
C      10.03       6.11      30.84
H      10.91       5.29      18.37
C      10.11       4.45      25.94
C       7.55       1.71      16.10
H       8.12       5.40      11.72
C       9.28       3.63      22.55
C      10.67       3.97      32.41
H      10.93       3.15      33.08
C       8.09       3.33      28.97
H       9.65       1.57      11.67
C      12.26       6.26      28.52
C       9.15       3.84      26.76
H       8.35       5.56      14.22
C      10.05       4.26      24.50
H       9.95       1.55      14.16
H      11.84       5.74      25.92
C       9.36       2.42      12.28
H      10.82       2.81      30.60
C       8.65       4.65      13.69
H       8.01       2.12      18.67
S       8.41       3.01      21.20
S      11.24       5.00      23.43
C       9.16       3.56      14.41
N       8.86       3.48      11.61
N      10.41       5.15      33.00
C       9.57       3.81      20.13
H       9.88       7.13      32.75
N      10.53       4.49      20.75
N       9.09       3.56      23.89
H      11.07       5.26      14.65
H      10.64       6.54      15.80
C       9.52       2.43      13.66
H      12.02       5.50      16.14
H       9.75       6.98      30.25
C      10.29       4.88      30.21
C       9.28       3.61      15.88
C      11.10       5.25      26.54
H       7.62       1.61      15.02
C      11.16       5.41      27.92
H       7.72       0.73      16.56
C       8.51       2.72      16.68
H       6.52       2.00      16.35
C      10.62       3.80      31.03
H       8.16       3.55      30.03
H       7.10       3.67      28.61
C       8.60       2.81      18.07
H       8.10       2.24      28.85
H      12.94       6.61      27.73
C      10.21       4.75      28.74
H      11.87       7.14      29.04
H      12.86       5.69      29.25
H       8.36       3.25      26.29
C      10.10       6.20      32.22
C      11.01       5.51      15.72
C       9.18       3.98      28.15
C      10.38       4.38      22.08
C      10.14       4.55      16.50
C      10.22       4.59      17.89
