50

N       7.27      13.49       5.74
H       4.79       4.26      -3.82
H       4.06       7.99      -5.86
N       8.15       7.45       2.01
H       7.85      13.80       3.73
O       9.29       7.73       2.39
O       7.40       6.61       2.54
H       6.18      10.20      -2.11
H       7.00      11.39      -0.09
H       9.52       6.14      -0.27
H       9.89       3.72      -0.64
H       7.94       2.21      -1.03
H       5.63       3.13      -1.01
H       5.27       5.56      -0.62
H       7.88       8.88       4.84
H       7.27       6.66       5.72
H       5.63       6.46       7.59
H       4.57       8.51       8.54
H       5.14      10.74       7.61
C       4.50       5.03      -4.52
C       4.13       6.95      -5.56
C       4.60       6.43      -4.34
C       6.93      11.29       5.67
C       7.55      13.09       4.49
C       7.37      11.70       4.38
C       7.17       7.48      -0.28
C       6.56       8.23      -1.32
C       6.58       9.64      -1.27
C       7.05      10.31      -0.15
C       7.51       9.59       0.97
C       7.62       8.19       0.84
C       5.91       7.60      -2.40
C       7.66      10.27       2.20
C       7.54      10.93       3.22
C       5.23       7.10      -3.28
C       7.37       6.01      -0.42
C       8.67       5.48      -0.41
C       8.87       4.12      -0.63
C       7.78       3.27      -0.85
C       6.49       3.79      -0.84
C       6.28       5.15      -0.63
C       6.58       9.97       6.18
C       7.16       8.81       5.65
C       6.82       7.55       6.16
C       5.90       7.44       7.20
C       5.31       8.59       7.74
C       5.64       9.85       7.23
N       4.04       4.76      -5.75
N       3.83       5.95      -6.41
N       6.88      12.39       6.47
