23

H      10.91       9.82       4.11
O      15.35      11.00       1.16
O      13.98       9.18       1.24
H      13.74       9.78       4.38
H      13.64      12.45       5.28
H      11.14      13.36       2.27
H      11.25      10.64       1.42
H      13.88      14.63       2.94
H      15.24      13.48       2.76
H      14.16      13.80       1.39
C      11.72      12.56       2.74
C      11.77      11.07       2.28
C      13.34      11.07       2.45
C      14.28      10.38       1.55
C      10.64      12.60       5.28
C      13.15      10.58       3.94
C      11.60      10.59       3.76
C      11.56      12.10       4.23
C      13.12      12.06       4.41
C      13.29      12.57       2.93
C      14.19      13.68       2.48
O       9.62      13.30       4.93
O      10.95      12.30       6.48
