18

C      18.49       2.46      10.14
O      17.35       2.86       9.73
O      19.62       3.01       9.91
O      16.02      -2.28      13.07
O      20.87       0.93      11.34
H      15.45      -1.66      12.59
H      21.45       0.29      11.79
C      17.32      -1.89      12.92
C      19.58       0.55      11.49
C      18.39      -2.59      13.46
C      18.50       1.24      10.94
C      19.14      -0.60      12.20
C      17.75      -0.75      12.19
O      19.57      -4.24      14.61
O      17.28      -4.33      14.56
C      18.40      -3.80      14.27
S      19.93      -1.85      13.09
S      16.96       0.50      11.30
