16

C      27.10      13.90      14.26
O      28.26      13.48      14.60
O      25.98      13.37      14.56
S      28.60      15.87      13.07
S      25.60      18.18      11.30
C      28.22      18.26      11.47
C      27.14      20.16      10.13
C      27.81      17.12      12.18
O      26.00      20.59       9.73
O      28.29      20.68       9.90
C      25.99      15.81      12.91
Cl      24.34      15.39      13.05
C      27.07      15.12      13.45
C      27.12      18.93      10.94
H      29.24      18.61      11.32
C      26.41      16.95      12.19
