16

H       9.46       8.78       7.92
H      13.40      11.41       9.39
O      10.26      13.60       8.55
O      10.33       6.63       8.52
O      12.58       6.58       8.80
C      11.38      13.01       8.68
O      12.51      13.58       8.82
C      11.47       7.18       8.66
C      11.38      11.52       8.65
C      11.48       8.68       8.66
C      10.28      10.74       8.24
C      12.58       9.46       9.07
C      10.33       9.36       8.24
F       9.14      11.32       7.79
F      13.72       8.88       9.51
C      12.53      10.84       9.07
