16

C       8.86      19.26      10.52
C      11.16      18.51      10.27
H       8.46      20.49      12.24
C       9.83      18.53       9.81
O      10.34      17.05       7.99
C      11.52      19.18      11.44
C      12.95      19.17      11.90
C       9.22      19.93      11.69
H      10.81      20.38      13.08
O       8.23      17.72       8.23
C       9.47      17.74       8.61
C      10.53      19.88      12.15
H      11.91      17.95       9.72
O      13.80      18.63      11.13
H       7.84      19.28      10.14
O      13.19      19.71      13.03
