44

O       1.05      16.15      16.95
O       2.87      15.48      18.10
H       3.14      15.76      19.99
H       2.99      16.58      21.49
H       0.78      17.92      16.25
H       0.93      19.63      16.20
H       0.69      21.90      18.77
H      -0.12      20.93      17.67
H       3.23      19.93      22.17
H       4.04      18.50      21.89
H       0.69      21.75      23.22
H      -0.12      22.72      24.32
H       3.23      23.71      19.82
H       4.04      25.15      20.11
H       3.14      27.89      22.00
H       2.99      27.07      20.50
H       0.78      25.73      25.75
H       0.93      24.02      25.79
C       1.96      27.29      24.15
C       1.96      16.36      17.84
C       1.96      17.63      18.57
C       2.58      17.71      19.86
C       2.58      18.93      20.55
C       1.96      20.07      19.98
C       1.35      19.99      18.71
C       1.35      18.78      18.00
C       1.96      21.29      20.69
C       1.96      22.35      21.30
C       1.96      23.58      22.01
C       1.35      23.65      23.28
C       1.35      24.87      23.99
C       1.96      26.02      23.42
C       2.58      25.94      22.13
C       2.57      24.72      21.44
N       3.19      16.63      20.50
N       0.73      18.80      16.75
N       0.79      21.13      18.11
N       3.13      18.97      21.84
N       0.79      22.52      23.89
N       3.13      24.67      20.15
N       3.19      27.01      21.50
N       0.73      24.85      25.24
O       1.05      27.50      25.04
O       2.87      28.16      23.89
