19

H      -0.84      -6.90      13.23
H       1.60      -6.59      13.55
H       2.44      -4.64      14.85
H       0.81      -3.07      15.90
H      -3.50      -5.20      14.90
H      -3.02      -6.39      13.68
O      -1.27      -2.25      16.62
O      -3.06      -3.00      15.52
O      -4.62      -4.20      12.92
O      -2.56      -4.08      12.01
C      -0.92      -4.06      15.11
C      -1.40      -5.15      14.34
C      -0.47      -6.05      13.81
C       0.90      -5.89      14.00
C       1.37      -4.80      14.74
C       0.47      -3.91      15.29
C      -1.82      -3.06      15.77
C      -2.86      -5.36      14.03
C      -3.36      -4.46      12.90
