30

H      19.20      24.90       9.78
H      19.20      26.94      11.14
C      18.84      24.70       7.08
H      19.51      23.40       3.98
C      18.84      29.51      10.29
H      19.51      32.86      10.30
H      17.74      21.46       7.16
C      18.92      25.93       7.89
C      18.92      28.28       9.47
H      17.74      30.67      13.31
C      19.07      25.86       9.29
H      17.88      23.50       8.61
C      19.07      27.02      10.06
H      17.87      28.55      11.99
C      19.17      23.48       5.01
H      19.76      25.52       5.29
H      19.76      30.84       8.84
C      19.17      31.88      10.62
H      18.69      27.27       6.21
C      18.19      22.39       6.81
C      18.18      30.65      12.32
H      18.69      29.32       7.58
C      18.28      23.52       7.60
C      18.28      29.48      11.58
C      19.30      24.65       5.75
C      19.29      30.75       9.82
C      18.82      27.19       7.29
C      18.82      28.35       8.07
N      18.63      22.37       5.53
N      18.62      31.83      11.85
