24

H      23.61       5.68       6.40
H      22.68       5.50       4.97
H      23.95      11.53       3.03
H      25.49      11.27       3.77
H      20.94       7.63       3.16
H      21.05       6.69       4.59
H      26.40       9.75       6.53
H      25.69      11.13       5.80
O      24.90       6.42       7.50
O      26.46       8.03       7.21
C      25.33       7.48       6.90
C      22.12       9.82       2.66
C      24.52       8.07       5.83
C      22.93       9.23       3.74
C      23.40       7.37       5.29
C      24.06       9.92       4.26
C      22.60       7.94       4.27
O      21.24       9.08       2.06
C      24.83       9.36       5.30
O      22.30      11.06       2.35
N      22.98       6.11       5.73
N      24.47      11.18       3.83
N      21.54       7.17       3.84
N      25.91      10.14       5.73
