28

C      11.39       1.01       4.26
C      10.71       2.87       7.51
H      11.32       4.21       3.09
C      10.89       1.77       8.51
C       9.81       1.44       9.35
H      10.88       4.65       5.53
H      11.09       0.42       6.30
C       9.93       0.41      10.27
H      11.54      -0.00       3.89
C      11.15      -0.29      10.40
C      12.24       0.07       9.59
H       8.87       1.99       9.24
H       9.09       0.12      10.90
C      12.11       1.08       8.64
H      13.18      -0.46       9.72
C      11.27      -1.41      11.37
H      12.96       1.34       8.01
C      11.83       1.82       1.93
O      12.25       0.65       1.66
C      11.45       2.08       3.36
O      11.76       2.78       1.10
C      11.26       3.39       3.81
O      12.39      -2.02      11.43
C      11.03       3.64       5.15
O      10.25      -1.69      12.09
C      10.99       2.57       6.07
O      10.32       3.98       7.87
C      11.15       1.26       5.61
