28

Br      18.81      -5.17       7.33
Br      24.55      -5.17       7.33
Br      18.81      -7.33      10.39
Br      24.55      -7.33      10.39
H      23.83      -3.57       4.98
H      19.53      -3.57       4.98
H      23.83      -9.01      12.67
H      19.53      -9.01      12.67
O      20.54     -10.30      14.48
O      22.82      -2.30       3.16
C      21.68      -9.97      14.00
C      21.68      -2.64       3.63
O      20.54      -2.30       3.16
O      22.82     -10.30      14.48
C      21.68      -3.49       4.86
C      22.89      -3.89       5.44
C      22.89      -4.66       6.59
C      21.68      -5.09       7.20
C      20.47      -4.66       6.58
C      20.47      -3.89       5.44
C      21.68      -5.89       8.36
C      21.68      -6.60       9.36
C      21.68      -7.42      10.50
C      22.89      -7.86      11.11
C      22.89      -8.69      12.23
C      21.68      -9.10      12.79
C      20.47      -8.69      12.23
C      20.47      -7.86      11.11
