22

H       5.83       2.14       6.77
H       4.23       0.83       8.10
H       6.39      -2.78       7.23
H       4.55      -1.64       8.38
H      10.07      -1.39       4.49
H       9.99       1.11       4.56
C       8.11       2.68       5.44
C       8.30      -3.11       5.39
C       8.11       1.19       5.56
C       7.07       0.45       6.22
C       9.19       0.52       5.01
C       5.96       1.06       6.87
C       5.06       0.33       7.61
C       8.25      -1.63       5.58
C       9.25      -0.88       4.99
C       7.18      -0.99       6.29
C       6.26      -1.71       7.10
C       5.23      -1.07       7.76
O       9.25       3.24       5.37
O       9.45      -3.66       5.28
O       7.19      -3.72       5.33
O       6.99       3.29       5.37
