27

C       4.40      19.07      12.43
C       5.59      17.49      11.05
H       4.11      19.40      13.43
C       5.14      18.16       9.92
C       3.96      19.75      11.30
O       5.04      17.54      14.64
H       6.22      16.60      10.96
C       4.32      19.31      10.00
O       6.56      16.34      13.43
H       5.40      17.79       8.93
C       3.94      20.04       8.78
H       1.92      20.52       9.39
O       3.81      22.17       4.24
C       2.68      20.64       8.61
H       5.87      19.74       7.86
O       2.11      23.21       5.35
H       1.41      21.86       7.36
C       4.88      20.17       7.74
O       3.19      20.88      11.42
C       2.38      21.38       7.48
H       5.31      20.99       5.78
C       4.58      20.88       6.58
H       3.12      21.10      12.37
C       3.33      21.51       6.45
C       3.06      22.36       5.26
C       5.65      17.22      13.55
C       5.22      17.94      12.32
