64

H      20.31       8.90      18.10
H      10.44       8.76      35.83
H      19.71       9.00      20.54
H      11.02       8.66      33.39
H      17.15      11.99      23.78
H      13.58       5.68      30.14
H      14.51       9.69      36.79
H      16.23       7.99      17.12
H      15.11       9.60      34.36
H      15.63       8.07      19.56
H      14.58      12.32      30.20
H      16.16       5.35      23.73
H      15.43      12.25      27.90
H      15.31       5.42      26.03
C      16.38       8.70      24.28
C      14.36       8.96      29.64
C      16.81       9.87      23.61
C      13.92       7.79      30.31
C      16.80      11.08      24.28
C      13.94       6.58      29.64
C      16.45       7.46      23.60
C      14.28      10.20      30.32
C      18.31       8.45      17.47
C      12.44       9.22      36.45
C      15.29      10.11      27.66
C      15.45       7.56      26.26
C      14.91       7.63      27.62
C      15.83      10.04      26.30
C      14.86       8.89      28.30
C      15.88       8.77      25.62
C      15.15      11.32      28.36
C      15.59       6.35      25.56
C      14.66      11.37      29.67
C      16.08       6.30      24.25
C      18.68       8.39      16.02
C      12.07       9.28      37.90
C      16.32      11.14      25.59
C      14.41       6.53      28.34
C      17.28       9.85      22.21
C      13.45       7.82      31.72
C      16.92       7.37      22.20
C      13.81      10.29      31.72
C      16.65       8.26      19.23
C      14.09       9.41      34.69
C      16.98       8.21      17.88
C      13.76       9.46      36.04
C      19.28       8.73      18.43
C      11.46       8.94      35.49
C      18.95       8.78      19.78
C      11.78       8.89      34.14
C      17.64       8.54      20.17
C      13.10       9.13      33.75
N      17.27       8.59      21.57
N      13.46       9.08      32.35
O      17.74       8.23      15.17
O      13.00       9.54      38.73
O      19.92       8.50      15.74
O      10.85       9.05      38.20
O      17.63      10.86      21.61
O      13.10       6.80      32.31
O      13.74      11.36      32.33
O      17.00       6.31      21.59
F      16.38      12.38      26.15
F      14.36       5.28      27.77
