13

C       1.12       2.05      17.77
H       4.46       3.56      18.88
H       0.33       3.58      19.09
H       0.15       1.63      17.50
O       3.30       0.06      15.68
O       1.19      -0.38      16.38
C       2.25       0.30      16.36
N       2.40       3.64      19.04
C       2.29       1.50      17.25
C       3.52       2.07      17.62
C       1.21       3.13      18.65
C       3.53       3.11      18.52
H       4.44       1.66      17.20
