49

H      18.34      14.97      17.35
H      17.07      14.11      19.69
H      20.56      16.15      16.91
H      21.68      17.64      15.31
H      18.22      18.13      20.18
H      22.91      26.18      15.28
H      22.98      24.26       9.42
H      21.90      23.24      11.40
H      17.87      19.34      18.01
C      19.14      17.65      17.55
H      19.02      20.85      16.40
C      20.98      20.25      14.74
C      18.13      15.47      18.28
H      23.02      27.10      13.00
C      17.49      15.07      19.43
H      22.28      23.78      15.64
C      22.48      25.23      12.04
C      20.20      17.17      16.79
C      20.39      19.33      15.71
H      21.97      18.22      12.50
C      20.83      18.01      15.87
H      20.55      18.99      11.73
H      20.37      18.09      13.26
H      21.37      27.59      11.26
H      21.21      27.81       8.57
C      21.69      21.99      13.76
H      24.19      28.39      11.29
H      23.93      28.81       8.44
C      18.05      17.16      19.72
C      22.70      25.53      14.44
C      22.66      25.29       9.54
C      22.16      23.89      12.23
C      22.10      23.37      13.54
C      18.71      18.98      17.43
C      19.35      19.82      16.52
C      22.76      26.06      13.15
C      22.36      24.20      14.64
C      22.12      27.43       9.06
C      22.20      27.26      10.62
C      21.03      18.74      12.68
C      23.34      28.31       9.20
C      23.45      28.12      10.53
N      22.48      26.10       8.53
N      18.48      16.80      18.48
N      17.45      16.13      20.31
N      21.24      19.96      13.43
N      21.69      21.07      12.79
N      21.26      21.53      14.97
N      22.45      25.83      10.77
