18

C      11.50      13.79      12.39
H      11.50      17.49      13.58
C      11.50      16.45      13.26
C      11.50      12.38      11.89
C      10.29      14.45      12.62
C      10.29      15.78      13.06
C       9.00      16.48      13.35
O      10.36      11.84      11.69
H      13.65      13.92      12.45
O       7.92      15.83      13.51
O       9.04      17.76      13.46
C      12.71      14.45      12.62
C      12.71      15.78      13.06
C      14.00      16.48      13.36
H       9.36      13.92      12.45
O      12.64      11.84      11.69
O      15.08      15.83      13.51
O      13.97      17.76      13.46
