32

H      10.45       8.58      23.49
H       6.12       8.58      25.25
H      10.27       9.02      27.87
H      10.41       9.03      25.41
H       6.29       9.06      20.89
H       6.16       9.06      23.35
C      10.98       8.63      20.92
C       5.58       8.62      27.82
O       7.22       9.08      18.75
O       9.44       8.69      18.64
O       9.34       9.06      30.00
O       7.11       8.66      30.10
H      11.75       8.60      21.71
H      11.09       7.74      20.29
H      11.18       9.49      20.27
H       4.82       8.60      27.02
H       5.47       7.73      28.45
H       5.38       9.48      28.48
C       8.36       8.88      19.29
C       8.20       8.85      29.46
C       8.42       8.85      20.79
C       8.15       8.83      27.96
C       9.61       8.73      21.53
C       9.52       8.70      22.93
C       6.95       8.71      27.21
C       7.05       8.69      25.81
C       9.37       8.93      27.27
C       9.43       8.93      25.89
C       7.20       8.96      21.48
C       7.13       8.95      22.86
C       8.30       8.81      23.63
C       8.27       8.81      25.11
