20

H      11.99       5.84       7.88
H      14.47       6.04       8.01
H      14.34       7.20      11.98
H      11.85       7.15      12.01
H       7.55       6.74       7.79
H      10.04       6.88       7.76
H       9.96       6.03      12.01
H       7.47       6.04      11.86
C      11.70       6.49       9.94
C      12.46       6.17       8.81
C      13.84       6.26       8.87
C      13.77       6.91      11.10
C      12.38       6.86      11.11
C      10.23       6.45       9.90
C       8.14       6.61       8.70
C       9.53       6.66       8.69
C       9.48       6.22      11.06
C       8.09       6.20      10.99
N      14.49       6.62      10.00
N       7.43       6.39       9.83
