35

H      -3.95      10.43       7.45
H      -3.90       4.62       8.64
H      -2.11       3.01       9.08
H      -7.50      10.24       6.53
H      -6.15      11.42       6.66
H      -7.36      12.57       8.55
H      -8.37      12.52       7.08
H      -8.68      11.38       8.42
C      -2.66       6.02       7.56
C      -1.31       6.33       7.19
C      -3.71       7.01       7.40
C      -3.31       8.37       7.23
C      -2.01       8.60       6.64
C      -1.12       7.57       6.46
C      -5.10       6.75       7.46
C      -5.56       9.09       7.85
C      -0.24       5.46       7.58
C       1.19       5.93       7.59
C      -7.51       7.44       7.98
C      -4.25       9.39       7.50
C      -6.04       7.74       7.77
C      -0.57       4.24       8.19
C      -1.90       3.93       8.54
C      -2.91       4.83       8.26
C      -6.96      10.91       7.22
C      -7.90      11.90       7.86
I      -1.65      10.51       5.82
I      -5.75       4.92       6.59
I       0.83       2.78       8.83
I       0.33       7.63       4.95
O       2.10       5.10       7.29
O       1.38       7.13       7.98
O      -7.80       6.28       8.41
O      -8.35       8.35       7.71
O      -6.37      10.11       8.27
