16

O       8.94      11.88      19.02
C      13.72      14.92      22.16
O      13.53      14.78      23.40
F      12.30      14.01      17.63
F      11.31      13.43      22.98
H      13.79      14.95      19.49
H       9.82      12.48      21.13
C      10.89      13.14      19.38
C      12.72      14.29      21.23
C      12.03      13.85      18.95
C       9.89      12.51      18.46
C      12.92      14.41      19.85
C      10.69      13.02      20.76
O      14.68      15.55      21.59
O      10.07      12.65      17.21
C      11.58      13.59      21.66
