45

H       1.14      10.28       9.40
C      -0.06      15.00       8.94
C       0.19      16.09       9.96
H      -3.24      16.61       6.33
H      -3.90      12.28       6.20
H      -2.41      10.29       6.09
C      -0.38       8.49       5.30
H      -4.54      16.78      10.41
H       0.18      12.14       9.01
H      -3.13      19.09       6.25
H      -2.96      21.49       6.25
H      -4.50      19.26      10.34
N       1.79       8.73       8.12
N      -3.46      14.48       7.54
N      -3.63      15.18       8.59
H      -3.25      21.22      10.57
N      -2.39      22.74       7.86
N      -2.49      22.66       9.21
N       1.34       8.25       6.95
O      -1.24      14.28       9.34
O      -1.42       8.88       4.76
H      -0.23      15.43       7.94
H       0.80      14.32       8.87
H       1.07      16.68       9.67
H      -0.67      16.77      10.03
H       0.37      15.66      10.96
H       0.22       7.67       4.83
C      -3.39      20.77       8.36
C       0.22       8.94       6.54
C       0.98       9.75       8.46
C      -0.04       9.96       7.50
C      -2.93      21.62       7.33
C      -1.01      11.05       7.55
C      -3.10      21.50       9.53
C      -0.74      12.13       8.41
C      -1.58      13.23       8.52
C      -2.75      13.30       7.70
C      -3.02      12.21       6.84
C      -2.19      11.10       6.78
C      -3.55      17.21       7.18
C      -3.49      18.59       7.15
C      -3.89      16.54       8.38
C      -3.78      19.36       8.30
C      -4.24      18.69       9.45
C      -4.27      17.30       9.50
