24

S      17.85      21.03      27.44
H      20.40      16.72      27.51
S      22.67      17.13      29.06
H      19.98      21.35      29.18
H      16.44      19.51      27.54
H      22.68      17.78      31.03
C      18.21      17.82      26.58
C      22.09      20.21      30.22
O      18.63      16.82      25.94
O      17.00      18.27      26.54
O      22.08      21.47      30.25
O      22.82      19.47      30.98
C      19.20      18.51      27.49
C      21.15      19.55      29.25
C      19.10      19.83      27.96
O      16.51      20.39      28.02
C      20.07      20.33      28.83
C      20.30      17.74      27.89
O      18.06      22.24      28.17
O      17.82      21.03      26.00
C      21.27      18.24      28.75
O      22.55      16.87      30.62
O      22.39      15.88      28.42
O      23.87      17.87      28.76
