12

O      -1.99       4.53       6.13
O       1.51       6.84       5.90
O      -2.15       7.13       6.02
H       1.40       5.85       5.96
H      -2.03       8.11       5.98
C      -0.88       5.13       6.07
C       0.23       8.83       5.84
C       0.26       7.35       5.91
C      -0.90       6.61       6.00
O       0.29       4.56       6.06
O       1.35       9.43       5.79
O      -0.94       9.40       5.85
