30

C       6.48       6.94      25.20
C       6.47       6.94      22.38
H       6.45       9.07      18.27
H       6.44       4.80      18.27
H       6.47       4.81      25.08
H       6.49       9.08      25.08
C       6.43       6.94      16.64
C       6.48       6.94      26.70
C       6.46       5.70      23.11
Br       6.45      11.05      23.32
Br       6.44      11.05      20.02
Br       6.42       2.83      23.33
Br       6.40       2.83      20.02
O       6.51       8.07      27.29
O       6.45       5.80      27.28
C       6.47       8.18      23.11
O       6.45       5.81      16.06
O       6.40       8.07      16.07
C       6.45       8.15      18.84
C       6.46       8.18      20.24
C       6.46       9.41      20.99
C       6.44       4.47      20.99
C       6.47       5.73      24.51
C       6.44       5.73      18.84
C       6.45       4.47      22.36
C       6.48       8.15      24.51
C       6.45       5.70      20.24
C       6.47       9.41      22.36
C       6.44       6.94      18.15
C       6.46       6.94      20.96
