26

H       3.17       1.36       5.02
H       6.86      -1.38       6.82
H       6.84       1.30       4.20
H       6.98      -1.04       4.32
H       3.39       1.05       6.74
H       3.14      -1.23       6.24
H       3.26      -0.93       4.51
H       5.22       1.23       3.49
H       5.51      -1.08       3.33
H       7.11       0.95       6.68
H       5.73       1.07       7.77
H       5.30      -1.22       7.63
C       5.16      -1.30       5.46
C       5.93      -0.70       4.27
C       5.88      -0.87       6.77
C       5.33       2.83       5.73
C       5.15      -2.83       5.39
C       3.79       0.81       5.74
C       3.74      -0.71       5.48
C       5.85       0.85       4.31
C       6.06       0.67       6.80
C       5.24       1.31       5.66
O       4.24       3.49       5.79
O       6.50       3.35       5.71
O       4.02      -3.41       5.51
O       6.27      -3.42       5.25
