14

C       6.19       5.73       9.68
H       8.77       5.84      13.69
C       6.32       5.72      11.11
C       6.65       5.75      13.72
C       7.87       5.80      14.32
C       8.03       5.83      15.71
H       5.75       5.71      14.34
C       6.48       5.73      12.32
O       9.45       5.87      18.86
O       7.18       5.87      19.01
O       7.28       5.70       9.02
C       8.17       5.85      16.93
O       5.00       5.75       9.20
C       8.28       5.86      18.37
