24

C       0.65       7.59      13.34
C      -0.73       7.65      13.30
C      -1.37       8.88      13.45
C      -0.59      10.03      13.59
C       0.80       9.92      13.60
C      -2.88       8.97      13.53
O      -3.54       7.97      13.12
O      -3.36      10.03      14.03
H       5.02      11.23      14.09
H       4.47      13.69      14.18
H       0.34      12.71      13.63
H       1.18       6.64      13.25
H      -1.34       6.75      13.16
H      -1.10      10.99      13.72
C       4.00      11.58      14.00
C       3.69      12.94      14.05
C       2.37      13.35      13.89
C       1.38      12.38      13.75
C       1.73      11.03      13.74
C       2.02      14.82      13.82
N       3.04      10.65      13.85
N       1.40       8.70      13.49
O       2.88      15.65      14.23
O       0.89      15.10      13.31
