16

S      21.98      13.45      18.28
S      21.23      13.64      22.41
C      24.43      12.16      18.29
C      23.18      12.70      20.47
C      20.03      14.39      20.22
C      23.33      12.70      19.09
C      19.88      14.39      21.60
C      21.23      13.77      19.80
C      21.98      13.32      20.89
F      24.06      12.19      21.34
C      18.78      14.94      22.40
F      19.15      14.90      19.35
O      17.82      15.48      21.78
O      18.91      14.80      23.67
O      25.40      11.61      18.91
O      24.30      12.29      17.02
