36

C      -2.94      -5.78      21.68
H      -0.15      -2.85      16.77
C      -4.28      -5.85      21.98
C       2.15      -6.70      21.31
H      -4.96      -2.99      17.94
H      -4.20      -1.85      15.89
C       1.23      -5.81      20.56
H      -5.55      -3.94      19.50
C      -0.12      -5.79      20.91
C      -1.06      -5.04      20.18
H      -2.23      -6.30      22.31
C      -0.62      -4.29      19.06
H      -4.63      -6.43      22.84
C       0.76      -4.30      18.74
H      -0.41      -6.42      21.74
H       1.12      -3.72      17.90
C       1.68      -5.04      19.47
H       2.73      -5.06      19.20
O      -0.41      -1.60      14.68
O      -2.54      -1.41      14.04
O      -7.51      -4.53      20.87
O      -7.09      -6.27      22.19
O       1.66      -7.38      22.26
O       3.39      -6.77      20.97
C      -1.66      -1.71      14.93
C      -2.12      -2.29      16.22
C      -1.20      -2.90      17.07
C      -1.59      -3.58      18.23
C      -2.98      -3.63      18.56
C      -3.89      -2.97      17.71
C      -3.48      -2.33      16.56
C      -6.68      -5.33      21.43
C      -5.22      -5.19      21.17
C      -4.78      -4.44      20.09
C      -3.42      -4.37      19.74
C      -2.47      -5.06      20.55
