13

C      16.66       2.38       1.42
C      16.40       3.53       2.30
C      16.19       5.29       3.68
C      16.35       6.45       4.60
C      17.15       4.44       3.05
H      14.30       3.41       2.10
Br      19.01       4.50       3.18
O      15.59       1.87       0.92
O      17.85       1.98       1.23
O      17.54       6.84       4.83
O      15.26       6.91       5.06
N      15.10       3.88       2.52
N      14.94       4.91       3.33
