24

H       6.44       7.08       0.88
H       3.19       3.88      -0.91
O       3.63       5.76      -6.02
O       5.90       5.51      -6.05
O       6.01       5.37       5.99
O       3.72       5.36       6.02
C       4.77       5.61      -5.48
C       4.86       5.38       5.45
C       3.57       5.81       0.42
C       6.06       5.16      -0.44
C       4.51       6.73      -0.45
C       5.11       4.23       0.42
C       4.80       5.57      -4.03
C       4.83       5.40       4.00
C       3.91       4.59      -0.50
C       5.72       6.37       0.47
C       4.84       5.50      -1.40
C       4.79       5.46       1.37
C       4.83       5.53      -2.81
C       4.80       5.44       2.78
I       4.07       8.68      -1.11
I       5.55       2.29       1.09
I       1.63       6.28       1.07
I       8.00       4.68      -1.08
