20

H       6.17      10.89       2.21
C       6.19       9.51       0.51
C       6.52      10.53      -0.51
H       6.54       9.16      -2.21
C       6.02       9.87       1.85
H       5.22       7.04       3.32
C       6.68      10.18      -1.85
H       7.49      13.00      -3.32
C       5.52       7.69       2.50
H       5.61       6.18       0.96
C       7.19      12.35      -2.50
H       7.10      13.87      -0.96
H       6.22       7.77      -0.80
C       5.71       7.24       1.20
C       7.00      12.81      -1.20
H       6.49      12.28       0.80
C       6.05       8.15       0.20
C       6.66      11.90      -0.20
N       5.70       8.99       2.81
N       7.01      11.06      -2.81
