36

H      16.68      21.41       8.14
H      16.20      20.49       9.60
H      17.70      21.45       9.59
H      16.94      15.50       8.14
H      17.96      15.56       9.59
H      16.38      16.37       9.60
H      15.10      18.38       7.88
H      15.59      19.29       6.43
H      15.67      17.52       6.43
H      21.93      18.68       8.15
H      21.36      19.55       9.61
H      21.44      17.77       9.61
C      21.21      18.65       8.99
C      18.51      18.53      10.81
C      18.50      18.53       5.23
C      18.50      18.53       2.58
C      18.51      18.53      13.46
C      17.22      18.47       7.57
C      19.10      19.66       7.59
C      19.20      17.46       7.58
C      17.81      19.62       8.48
C      17.91      17.39       8.47
C      18.51      18.53      12.03
C      18.50      18.53       4.02
C      19.81      18.59       8.48
C      18.52      18.53       9.40
C      18.51      18.53       6.64
C      17.05      20.80       8.98
C      17.26      16.14       8.98
C      15.82      18.41       7.05
I      20.02      21.43       6.88
I      20.27      15.78       6.87
O      19.65      18.53      14.04
O      17.36      18.53      14.04
O      18.50      19.68       2.00
O      18.51      17.39       2.00
