16

C       0.46       9.76       3.90
O       0.54      11.15       1.50
C       0.46       9.03       5.08
O       0.54       7.47       7.38
H       3.82      10.06       3.42
H       3.82       8.72       5.56
H      -0.47      10.06       3.42
H      -0.47       8.72       5.56
C       1.67      10.87       2.00
C       1.67      10.11       3.30
C       1.67       7.81       6.91
C       1.67       8.65       5.68
C       2.89       9.76       3.90
C       2.89       9.03       5.08
O       2.81       7.47       7.38
O       2.81      11.15       1.50
