32

C      13.21       9.32      10.97
H       8.08       8.79      18.25
H       9.22       8.74      16.00
H      12.96       9.21      18.10
H      11.68       9.21      20.23
N       9.83       9.00      19.31
H      13.76       9.16      14.52
N      11.12       9.05      14.50
H      13.68      10.14      16.02
H      13.84       8.37      16.12
N      11.80       9.13      13.31
H       9.16       9.15      13.22
N      13.28       9.28       8.57
H       9.19      10.05      11.68
H       9.19       8.30      11.64
H      10.08       9.15       9.61
H      11.48       9.17       7.56
H      14.99       9.46       9.74
H      13.75       9.36      11.91
C       9.16       8.85      18.15
C       9.79       8.84      16.92
C      11.19       8.99      16.86
C      11.88       9.09      18.07
C      11.17       9.10      19.27
C      11.89       9.07      15.56
C      13.38       9.19      15.55
C       9.56       9.16      12.21
C      11.06       9.17      12.23
C      11.81       9.22      10.96
C      11.17       9.18       9.71
C      11.94       9.19       8.55
C      13.90       9.36       9.77
