28

H      -1.52      15.76       2.91
H      -1.51      17.95       4.12
H      -5.74      18.35       3.38
H      -5.74      16.16       2.18
H      -1.52      21.76       6.27
H      -1.53      23.95       7.48
H      -5.72      24.40       6.67
H      -5.74      22.21       5.46
O      -2.53      25.96       8.42
O      -4.72      26.27       7.87
O      -4.76      14.10       1.33
O      -2.50      13.94       1.61
C      -3.63      25.61       7.86
C      -3.63      14.53       1.75
C      -3.63      15.83       2.47
C      -2.44      16.34       3.02
C      -2.43      17.55       3.69
C      -3.63      18.29       3.83
C      -4.82      17.78       3.28
C      -4.82      16.56       2.61
C      -3.63      19.53       4.51
C      -3.63      20.60       5.10
C      -3.63      21.84       5.79
C      -2.44      22.34       6.36
C      -2.44      23.56       7.03
C      -3.63      24.30       7.14
C      -4.81      23.81       6.57
C      -4.82      22.59       5.90
