16

O      14.41      18.48      26.10
C      11.22      17.60      27.65
F      10.88      16.32      27.40
C      12.37      18.21      27.20
O      13.39      16.44      26.06
C      10.96      19.73      28.53
C      10.39      18.45      28.41
C      10.13      20.59      29.29
C       8.98      19.97      29.74
F      10.47      21.86      29.54
O       6.93      19.70      30.80
O       7.99      21.72      30.95
S      12.47      19.88      27.71
C      13.47      17.66      26.39
S       8.88      18.31      29.22
C       7.89      20.51      30.56
