43

C       6.80      10.81       7.63
C       7.77      11.71       7.19
C       7.89      12.97       7.80
C       7.06      13.33       8.86
H       9.40       9.50       5.57
H       8.79       8.47       4.27
H       8.19      10.13       4.42
C       5.25       8.92       6.45
C       8.78       6.69       6.98
C       5.98      11.17       8.72
C       6.10      12.42       9.32
C       5.88       5.52       5.64
O       7.93       6.68      12.24
O       8.82       8.78      12.18
H       8.42      11.45       6.36
H       8.65      13.67       7.44
H       7.15      14.31       9.33
H       5.45      12.69      10.15
H       5.24      10.46       9.10
H       9.23       6.36       6.04
H       9.51       7.32       7.50
H       8.61       5.80       7.61
O       4.78       9.40       0.78
H       6.06       4.77       6.42
H       4.84       5.43       5.30
H       6.53       5.28       4.78
H       4.55       7.17       7.89
H       4.35       9.52       6.30
O       3.79       7.39       1.18
C       6.03       8.21       5.27
C       5.36       7.62       7.30
C       6.70       8.14       7.92
C       6.15       6.90       6.15
C       7.51       7.44       6.74
C       5.63       8.26       3.91
C       7.09       8.09       9.27
C       8.09       7.82      11.70
C       6.61       9.47       7.03
C       4.58       8.37       1.48
C       7.40       8.74       5.87
C       8.51       9.25       4.99
C       5.24       8.27       2.76
C       7.47       8.04      10.43
