14

Br       3.08       1.42       9.82
Br       5.10      -1.43      10.76
H       6.56       1.20       8.14
C       5.03      -2.90       7.98
C       5.64       1.67       8.50
C       4.89      -0.61       9.04
O       6.20      -3.37       7.94
C       4.89      -1.40       7.95
O       3.93      -3.54       8.03
O       6.71       3.73       8.25
C       5.58       3.14       8.34
O       4.44       3.69       8.28
C       4.72       0.85       9.03
Br       4.61      -0.73       6.20
