26

C      11.58       1.16       0.53
H      12.17       0.61      -0.20
H      11.39      -0.48       1.89
H       9.44       3.26       2.87
H      11.23       5.17       0.62
H       9.63       5.09       1.41
H       9.81       4.68      -0.32
C      11.13       0.56       1.69
C      10.31       1.30       2.55
C      10.04       2.63       2.21
C      10.55       3.19       1.03
C      10.28       4.62       0.67
H      10.48      -1.12       6.53
H      11.56      -0.31       4.45
H       7.77       1.54       3.46
H       5.90      -0.29       5.72
H       5.94       1.31       4.92
C       9.92      -0.55       5.80
C      10.51      -0.08       4.64
C       9.75       0.72       3.78
C       8.41       0.96       4.12
C       7.86       0.44       5.30
C       6.43       0.67       5.66
H       6.36       1.14       6.65
N      11.30       2.44       0.20
N       8.63      -0.30       6.13
