70

H       5.75       7.71      11.95
H       6.45       6.58      10.76
H       9.65       6.76      13.85
H       9.69       4.87      15.51
H       5.80       3.62      14.17
H       5.73       5.49      12.56
H       4.91       9.36      10.18
H       6.03       9.76       8.83
H       4.73       5.74       7.51
H       3.62       5.73       5.26
H       3.42      10.01       5.36
H       4.46      10.05       7.60
H       9.01       7.99      10.15
H       7.85       7.37       8.94
H       7.17       7.77       6.88
H       7.87       7.35       4.59
H      11.38       9.80       5.17
H      10.65      10.24       7.53
H       8.28       9.72      11.79
H       7.44      10.79      10.62
H       4.63      10.27      14.13
H       4.76      11.87      16.03
H       8.49      13.40      14.50
H       8.36      11.84      12.59
H       8.86       6.97       2.97
C       6.97       8.66      10.42
C       6.64       7.48      11.35
C       7.70       6.23      13.10
C       8.81       6.06      13.93
C       8.84       5.01      14.85
C       7.75       4.12      14.93
C       6.65       4.31      14.10
C       6.61       5.36      13.19
C       7.77       2.98      15.90
C       5.74       8.98       9.56
C       4.68       7.88       7.69
C       4.43       6.67       7.03
C       3.82       6.67       5.78
C       3.47       7.88       5.16
C       3.71       9.08       5.84
C       4.29       9.09       7.10
C       2.85       7.89       3.81
C       8.14       8.25       9.53
C       8.89       9.02       7.36
C       8.11       8.20       6.53
C       8.52       7.96       5.22
C       9.71       8.53       4.73
C      10.46       9.37       5.56
C      10.06       9.61       6.87
C      10.25       8.28       3.37
C       7.33       9.90      11.26
C       6.46      10.97      13.23
C       5.46      10.97      14.21
C       5.54      11.86      15.27
C       6.61      12.76      15.37
C       7.63      12.72      14.41
C       7.56      11.84      13.33
C       6.68      13.76      16.45
O       7.77       7.28      12.21
O       6.78       2.18      15.77
O       8.72       2.91      16.74
O       5.34       7.78       8.89
O       2.24       6.86       3.36
O       2.92       8.96       3.10
O       8.53       9.33       8.65
O      11.25       8.85       2.95
O       9.65       7.37       2.57
O       6.27      10.10      12.20
O       5.58      14.17      17.06
O       7.75      14.28      16.85
