20

H      21.01      14.10       2.44
H      22.54      14.72       4.39
H      21.32      13.57       6.07
H      20.15      13.92       4.75
H      21.72      11.34       5.22
H      19.78      11.72       3.06
H      21.49      11.89       1.49
H      22.70      11.57       2.75
C      23.05      14.15       1.90
C      21.95      13.59       2.78
C      21.09      13.38       5.01
C      20.85      11.87       4.79
C      21.74      12.07       2.54
C      19.63      11.43       5.59
N      22.22      13.78       4.19
N      20.72      11.50       3.39
O      23.97      14.83       2.48
O      22.95      13.91       0.65
O      18.60      11.06       4.94
O      19.74      11.52       6.86
