22

H       5.85       7.20      10.19
H       9.95       5.91      10.36
H       9.94       6.13      12.84
H       8.78       6.83      14.94
H       4.68       8.12      14.77
H       4.69       7.91      12.29
C       7.89       6.37       8.67
C       6.74       7.67      16.46
C       6.74       6.99      10.78
C       9.06       6.26      10.89
C       9.06       6.38      12.26
C       7.90       6.86      12.94
C       7.89       7.04      14.34
C       5.57       7.78      14.24
C       5.57       7.65      12.87
C       6.72       7.18      12.19
C       7.89       6.55      10.14
C       6.74       7.49      14.98
O       6.76       6.27       8.09
O       5.59       7.74      17.03
O       7.87       7.77      17.04
O       9.04       6.30       8.10
