41

C      12.69       7.21       2.97
C      10.72       8.52       4.69
C      10.04      10.71       6.28
C       9.65      11.90       7.12
C       9.05       9.82       5.85
C      11.37      10.50       5.91
C      15.15       7.46       1.65
C       9.38       8.73       5.05
C      16.47       7.60       0.94
C      10.62       4.43       4.49
C      12.87       8.20       1.99
P      11.06       7.04       3.71
C      14.09       8.33       1.34
C      11.72       9.40       5.12
C      11.67       5.83       6.17
C      10.67       3.35       5.38
C      14.97       6.47       2.62
C      13.75       6.35       3.28
C      11.19       3.51       6.66
C      11.70       4.76       7.06
C      11.20       2.35       7.62
O       9.96       6.85       2.68
O       8.41      12.02       7.38
O      16.56       8.55       0.09
O      11.00       1.20       7.11
O      10.60      12.67       7.47
O      17.37       6.76       1.23
O      11.37       2.61       8.85
H       8.02       9.99       6.15
H      12.13      11.21       6.26
H       8.61       8.04       4.69
H      10.16       4.32       3.51
H      12.04       8.86       1.72
H      14.24       9.08       0.57
H      12.76       9.24       4.84
H      12.06       6.81       6.49
H      10.28       2.38       5.09
H      12.09       4.87       8.07
H      15.81       5.81       2.85
H      13.61       5.58       4.04
C      11.13       5.67       4.89
