28

C       2.62      -3.13      22.09
C       1.99      -3.05      23.34
C       1.34      -4.17      23.87
C       1.35      -5.37      23.18
Br       3.36     -10.12      22.23
Br       3.35      -4.38      19.64
O       2.98      -0.96      23.85
H       0.83     -10.42      17.05
H       0.86      -8.25      18.29
O       2.98     -13.54      18.03
H       3.14     -12.24      20.19
H       0.83      -4.09      24.83
O       1.09     -12.93      16.93
H       0.86      -6.26      23.59
C       2.03      -1.78      24.10
O       1.09      -1.58      24.95
H       3.13      -2.26      21.69
C       2.03     -12.73      17.78
C       2.00     -11.45      18.54
C       1.34     -10.33      18.01
C       1.35      -9.13      18.70
C       1.96      -9.03      19.97
C       2.58     -10.19      20.51
C       2.62     -11.37      19.79
C       1.96      -7.80      20.66
C       1.95      -6.71      21.21
C       1.96      -5.48      21.91
C       2.57      -4.32      21.37
