38

H       6.99       2.34       3.53
H       4.29       2.60       3.35
H       4.24      -4.46       9.83
H       6.94      -4.67       9.97
H       4.14      -1.42       6.16
H       6.99      -0.67       7.17
C       6.51       0.58       4.76
C       6.23       1.75       4.04
C       4.84       1.87       3.94
C       4.27       0.79       4.61
C       4.66      -2.69       8.59
C       4.97      -3.86       9.31
C       6.37      -3.96       9.39
C       6.91      -2.86       8.70
C      10.09      -1.10      10.15
C       1.20      -1.06       3.05
C       9.46      -1.03       2.83
C       1.62      -1.17      10.46
C       2.52      -1.44       9.36
C       3.49      -1.95       8.82
C       9.22      -1.79       9.22
C       8.20      -2.32       8.83
C       2.00      -0.30       3.98
C       2.99       0.24       4.43
C       7.64      -0.21       4.50
C       8.56      -0.76       3.92
C       5.11      -0.92       6.19
C       6.03      -1.17       7.14
N       5.30       0.04       5.20
N       5.86      -2.14       8.14
O       9.56      -0.83      11.30
O      11.30      -0.79       9.93
O       1.61      -1.10       1.83
O      10.18      -0.00       2.53
O       0.96      -2.21      10.82
O       1.59      -0.04      11.03
O       9.46      -2.14       2.21
O       0.14      -1.70       3.39
