44

O      -0.01      14.75      10.28
O      -1.60      16.31      10.27
O      -4.07      15.68      11.20
O       0.72       2.32      19.12
O       2.33       0.79      19.33
O       4.77       1.29      18.35
O       4.14       6.88      14.98
O      -0.28      10.57      11.05
H       3.37       8.05      12.89
H       1.80       9.53      11.61
H      -1.27       8.75      14.54
H       0.24       7.33      15.78
H      -1.96      10.51      13.76
H      -4.27      11.63      13.23
H      -5.26      13.79      12.52
H      -0.52      12.81      11.46
H       1.37       5.67      15.91
H       5.01       5.01      15.76
H       6.01       3.01      16.88
H       1.22       4.07      17.57
C       2.92       6.71      15.12
C       1.93       7.58      14.42
C       2.35       8.22      13.24
C       1.49       9.05      12.54
C       0.18       9.29      13.00
C      -0.25       8.65      14.17
C       0.61       7.80      14.86
C      -0.63      10.26      12.20
C      -2.31      12.06      12.40
C      -3.65      12.36      12.69
C      -4.21      13.57      12.29
C      -3.47      14.54      11.58
C      -2.10      14.22      11.30
C      -1.56      13.00      11.71
C      -1.18      15.12      10.58
C       3.04       4.67      16.56
C       4.41       4.37      16.40
C       4.95       3.26      17.03
C       4.19       2.38      17.83
C       2.81       2.72      18.03
C       2.27       3.85      17.39
C       1.90       1.92      18.87
N      -1.70      10.86      12.84
N       2.38       5.71      15.89
