38

H       5.44       5.29      11.59
H       4.78       5.83      13.79
H       4.41       2.02      11.66
H       4.75       2.31      13.84
H       5.72       3.59      11.98
H       5.73       4.39      14.19
H       4.00       7.84      11.44
H       2.45       7.86      14.64
H      -0.64       5.07      11.08
H       0.36       2.99      15.50
C       3.73       4.12      15.69
C       2.49       4.96      12.01
C       2.29       4.76      13.60
C       5.03       4.44      12.13
C       4.86       4.76      13.62
C       3.81       4.03      10.01
C       3.54       2.55      12.07
C       3.72       2.59      13.63
C       2.75       6.47      11.62
C       1.88       6.12      14.26
C       1.19       4.68      11.18
C       1.11       3.81      13.98
C       3.65       4.00      11.54
C       3.59       4.06      14.16
Cl       2.18       1.56      11.47
Cl       2.80       1.31      14.47
O       4.15       2.95       9.45
O       4.33       3.15      16.25
O       1.87       7.22      11.25
O       4.03       6.90      11.73
O       0.75       6.35      14.65
O       2.86       7.06      14.25
O       3.74       5.18       9.46
O       3.36       5.19      16.27
O       1.21       4.08      10.12
O       0.10       5.29      11.68
O       0.39       3.19      13.22
O       1.03       3.69      15.33
