17

C       3.19      10.06       3.53
H       5.13      14.31       6.82
O       4.89      12.87       4.33
C       4.06      14.40       6.71
C       3.23      13.89       5.70
H       1.71      12.55       4.10
O       2.34       9.76       4.43
N       1.99      14.96       7.22
C       3.67      13.05       4.57
H       2.23      11.37       2.13
N       2.69      12.46       3.83
C       3.04      11.44       2.87
H       3.97      11.70       2.36
N       3.30      15.03       7.63
C       1.93      14.28       6.07
H       0.98      14.08       5.57
O       4.14       9.31       3.12
