28

O      18.27      28.59      12.08
O      17.39      27.83      10.14
H       9.31      25.06      13.68
H      10.99      26.51      17.38
H      13.00      26.22      11.56
H      14.67      27.67      15.26
O       5.72      24.14      16.86
O       6.60      24.90      18.80
C      17.34      28.05      11.39
C       6.65      24.68      17.55
C       7.91      25.07      16.82
C       8.08      24.87      15.42
C       9.24      25.24      14.75
C      10.30      25.83      15.44
C      10.18      26.05      16.82
C       9.01      25.68      17.50
C      11.49      26.20      14.76
C      12.50      26.53      14.18
C      13.69      26.90      13.50
C      13.81      26.68      12.12
C      14.98      27.05      11.45
C      16.08      27.66      12.12
C      15.91      27.86      13.52
C      14.75      27.50      14.19
Cl       6.89      24.15      14.39
Cl       9.05      26.04      19.19
Cl      14.94      26.69       9.75
Cl      17.10      28.58      14.55
