13

O       2.00       9.15       5.57
O       1.35      10.27       7.44
O       3.58       7.59       6.94
H       2.21       8.02       8.45
H       3.58       9.18       8.27
C       2.87       8.53       7.73
O       5.16       6.03       5.57
O       5.81       4.90       7.44
C       2.01       9.38       6.81
C       4.29       6.64       7.73
H       4.95       7.16       8.45
H       3.58       6.00       8.27
C       5.15       5.80       6.81
