16

O      15.89       5.59       9.83
F      12.98      11.02      13.33
F      13.38       5.48      11.17
S      11.38       7.47      12.98
S      14.98       9.03      11.49
C      10.39       9.68      14.33
O      10.53      10.87      14.76
C      12.64       9.74      13.07
O       9.40       8.89      14.53
C      11.48       9.13      13.51
C      13.72       6.75      11.42
C      12.89       7.61      12.18
C      13.46       8.89      12.30
C      14.88       7.37      10.97
C      15.97       6.82      10.16
O      16.90       7.64       9.86
