28

C       8.34       8.30       4.50
C       7.82       7.32      -4.49
C       8.56       7.10       3.80
C       7.68       8.52      -3.77
N       8.26       8.36       0.29
N       8.16       7.24      -0.30
H       7.50       9.44      -4.33
H       8.69       6.18       4.37
H       7.65       9.45      -1.82
H       8.72       6.15       1.85
O       8.24       9.41       6.59
O       7.75       6.22      -6.59
H       8.29       5.21      -1.84
O       7.84       8.49      -6.54
H       8.13       5.19      -4.36
O       8.11       7.14       6.54
H       8.06      10.42       4.34
H       8.08      10.40       1.81
C       8.23       8.28       5.99
C       7.80       7.34      -5.99
C       8.57       7.08       2.41
C       7.77       8.53      -2.39
C       8.36       8.27       1.70
C       8.02       7.33      -1.70
C       8.22       9.49       2.39
C       8.12       6.12      -2.41
C       8.20       9.50       3.78
C       8.03       6.12      -3.79
