36

C      -1.29      -2.44      20.86
C      -0.91      -1.44      19.98
C      -1.63      -0.24      19.95
C      -2.73      -0.10      20.81
C      -3.04      -1.14      21.68
N      -2.34      -2.29      21.70
C      -1.23       0.83      19.01
N      -0.15       0.58      18.25
N      -1.95       1.96      18.96
C       0.17       1.53      17.37
C      -1.57       2.82      18.01
C       1.37       1.29      16.54
N      -0.52       2.67      17.19
C       2.03       2.34      15.88
H      -0.77      -3.39      20.92
H      -0.06      -1.57      19.32
H      -3.32       0.82      20.80
C      -3.01       5.98      16.56
H      -3.86      -1.06      22.39
C       1.85      -0.01      16.38
C      -2.38       4.05      17.83
C      -3.26       4.47      18.84
C      -2.26       4.81      16.67
H       1.68       3.36      15.98
H       3.71       2.81      14.57
H       3.35      -1.24      15.38
H       1.35      -0.84      16.88
H      -3.37       3.89      19.75
H      -4.67       6.03      19.39
H      -2.94       6.63      15.68
H      -1.58       4.50      15.88
C       3.14       2.04      15.09
N       3.57       0.77      14.92
N      -3.84       6.39      17.53
C       2.94      -0.23      15.56
C      -3.97       5.65      18.65
