26

H      21.18       8.46      12.82
H      25.19      10.83      11.61
H      26.95      10.50       9.91
H      25.21       6.74       8.77
H      29.43       8.20       8.25
H      21.19       6.40      11.40
C      25.18       7.62       9.42
C      24.14       7.78      10.37
C      23.03       5.56       9.71
C      23.01      10.31      13.06
C      24.15       8.97      11.19
C      25.19       9.93      11.00
C      26.17       9.75      10.06
C      26.16       8.57       9.28
C      23.06       9.16      12.10
C      22.01       8.26      12.14
C      22.01       7.11      11.35
C      23.07       6.84      10.49
S      27.32       8.34       7.96
O      21.87       5.12       9.40
O      24.14       5.00       9.45
O      24.10      10.67      13.61
O      21.86      10.82      13.26
O      27.00       7.12       7.28
O      27.48       9.57       7.22
O      28.66       8.13       8.86
