35

F       6.53      11.74      22.08
F       8.16      10.31      21.89
C       6.14       9.84      20.65
C       6.84       8.72      19.86
C       6.13       7.53      19.63
C       6.70       6.49      18.91
C       8.00       6.62      18.40
C       8.71       7.80      18.63
C       8.14       8.85      19.34
C       8.62       5.49      17.62
C       5.42       9.24      21.87
H       5.12       7.42      20.03
H       6.16       5.57      18.73
C       4.15       9.66      22.30
C       3.58       9.10      23.45
H       9.72       7.90      18.24
C       4.27       8.15      24.20
H       8.71       9.76      19.50
H       3.60      10.43      21.77
C       5.54       7.73      23.77
C       6.10       8.27      22.62
H       2.60       9.42      23.79
C       3.69       7.62      25.47
H       6.10       7.01      24.36
C       7.13      10.91      21.21
H       7.09       7.94      22.30
C       5.18      10.54      19.65
O       8.00       4.42      17.48
O       9.80       5.76      17.15
O       4.46       6.83      26.17
O       2.53       7.95      25.83
F       4.14       9.74      19.31
F       5.83      10.84      18.48
F       4.66      11.71      20.12
F       7.69      11.68      20.24
