27

C       2.80       2.00      15.47
C       2.76       3.38      15.75
H       2.37      -1.05      18.68
H       1.88       4.86      17.06
H       0.74       3.23      18.49
H       2.19       0.01      16.03
H       3.36       1.64      14.60
C       3.62       5.74      14.90
H       5.05       2.95      13.94
C      -0.36       0.71      19.09
C       0.83       0.56      18.36
C       2.96       6.82      15.63
N       0.65      -1.06      19.93
N       5.27       5.03      13.62
H       3.14       8.71      15.94
H      -1.15       1.45      18.98
N       4.62       6.11      14.05
C       1.42      -0.58      18.92
C       3.58       4.32      14.97
N      -0.46      -0.26      20.02
O       1.96       6.80      16.33
O       3.66       8.03      15.47
C       1.96       3.80      16.83
C       1.31       2.88      17.63
C       1.41       1.50      17.39
C       4.66       3.94      14.15
C       2.15       1.08      16.27
