65

P       9.61       4.23       7.61
P       5.73       5.31      11.66
H       7.37       5.54       9.12
H       7.08       3.03      12.61
H      10.18       2.33       9.68
H       7.26       0.77      12.78
H       8.20      -1.17      14.03
H      12.05      -0.30      12.80
H      11.29       1.71      11.52
H       9.20       5.93       5.23
H       7.30       6.15       3.66
H       5.19       4.90       4.05
H       4.97       3.43       6.05
H       6.86       3.21       7.64
H      12.26       4.85       8.39
H      13.44       6.94       9.04
H      12.28       9.13       8.85
H       9.91       9.22       8.08
H       8.70       7.14       7.50
H       5.04       3.98       9.06
H       2.93       2.97       8.23
H       0.92       2.88       9.71
H       1.06       3.75      12.04
H       3.20       4.70      12.89
H       7.49       7.58      11.76
H       7.62       9.72      10.53
H       5.92      10.27       8.78
H       4.11       8.64       8.27
H       4.01       6.48       9.46
N      10.16      -0.81      13.46
C       8.83       3.94       9.25
C       7.74       4.69       9.71
C       7.11       4.36      10.91
C       7.58       3.27      11.66
C       8.69       2.54      11.24
C       9.32       2.90      10.03
C       9.19       1.40      12.02
C       8.33       0.57      12.76
C       8.85      -0.51      13.45
C      11.00      -0.01      12.77
C      10.56       1.09      12.05
C       8.16       4.57       6.56
C       8.27       5.39       5.43
C       7.20       5.51       4.54
C       6.02       4.81       4.75
C       5.89       3.99       5.87
C       6.96       3.86       6.77
C      11.74       5.81       8.33
C      12.41       6.99       8.68
C      11.75       8.21       8.58
C      10.42       8.26       8.15
C       9.75       7.09       7.82
C      10.41       5.85       7.90
C       4.24       4.45      11.02
C       4.17       3.94       9.72
C       2.98       3.37       9.25
C       1.85       3.32      10.07
C       1.93       3.81      11.38
C       3.12       4.36      11.85
C       5.75       6.87      10.69
C       6.76       7.80      10.99
C       6.83       9.01      10.30
C       5.88       9.32       9.31
C       4.86       8.40       9.03
C       4.80       7.18       9.71
