22

N      -0.92       8.16       8.65
N       3.26       8.39       8.89
H      -5.58       7.27       7.69
H      -3.05       7.29       7.72
H      -3.27      10.25      10.85
H      -5.80      10.10      10.70
H       0.77       6.82       7.23
H       0.55       9.78      10.36
H       3.08       9.81      10.39
H       3.30       6.97       7.39
C      -5.02       7.90       8.37
C      -3.63       7.92       8.39
C      -2.99       8.78       9.30
C      -3.76       9.58      10.14
C      -5.15       9.50      10.06
C       1.26       7.49       7.94
C       0.49       8.29       8.79
C       1.13       9.15       9.69
C       2.51       9.17       9.71
C       2.64       7.57       8.03
N      -5.76       8.68       9.19
N      -1.58       8.91       9.43
