14

O       2.70       3.72       9.36
O       2.51       3.19      16.55
O       0.35       3.93      16.66
O       4.44       5.16       9.72
H       3.33       3.85      14.17
H       4.23       4.55      12.14
H       0.27       3.49      14.16
C       3.49       4.38      10.10
C       1.40       3.56      16.03
C       1.28       3.56      14.55
C       2.34       3.73      13.73
C       3.36       4.23      11.57
C       2.28       3.81      12.28
Br       0.62       3.34      11.48
