19

H      -3.64       5.42      15.79
H      -1.21       5.54      15.37
H      -0.36       5.70      13.02
H      -2.00       5.81      11.14
H      -6.31       6.02      13.48
H      -5.82       5.56      15.13
O      -4.08       6.03      10.07
O      -5.87       5.46      11.27
O      -7.43       3.80      13.61
O      -5.37       2.95      13.96
C      -3.73       5.63      12.40
C      -4.21       5.51      13.72
C      -3.28       5.51      14.77
C      -1.91       5.58      14.53
C      -1.43       5.68      13.22
C      -2.34       5.71      12.17
C      -4.62       5.70      11.20
C      -5.67       5.35      14.06
C      -6.17       3.92      13.85
