20

F      22.49      10.35       5.73
C      22.98      11.02       2.03
C      22.61      12.24       4.19
C      23.12      12.23       2.90
C      23.71      13.43       2.50
C      23.73      14.60       3.30
C      23.12      14.60       4.57
C      22.61      13.38       4.99
C      21.80      12.74       6.11
C      21.81      11.41       5.17
C      22.95      15.82       5.43
Cl      24.53      15.97       2.66
Cl      22.63      12.51       7.65
Cl      20.22      13.49       6.36
Cl      20.25      10.82       4.60
O      22.78      11.22       0.79
O      23.03      15.61       6.68
O      22.70      16.92       4.84
O      23.04       9.91       2.64
F      24.31      13.50       1.30
