16

C      17.05      16.69      13.59
C      19.16      18.11      14.07
C      16.20      16.13      12.64
C      18.33      17.67      11.79
O      19.96      18.94      13.53
C      17.48      17.11      10.84
O      19.15      17.77      15.30
O      15.75      15.45       9.14
O      14.32      15.26      10.89
C      15.42      15.63      10.35
H      15.35      15.53      12.97
H      19.16      18.29      11.46
Cl      16.67      16.37      15.24
Cl      17.80      17.49       9.19
C      18.15      17.47      13.17
C      16.39      16.31      11.26
