16

C       0.79      15.85       2.55
C       1.47      17.08       2.07
C       2.11      17.90       3.00
C       2.65      19.13       2.59
C       3.25      20.04       3.60
C       2.56      19.52       1.24
C       1.98      18.65       0.32
C       1.41      17.44       0.71
H       2.16      17.60       4.04
H       2.94      20.49       0.92
H       0.89      16.80      -0.00
O       0.43      14.93       1.73
O       0.57      15.71       3.81
O       3.88      19.44       4.61
O       3.13      21.28       3.49
O       1.90      19.11      -1.00
