27

C       4.40      10.68      12.43
C       5.59      12.26      11.05
H       4.11      10.34      13.43
C       5.14      11.58       9.92
H       6.22      13.14      10.96
O       5.04      12.20      14.64
C       3.96      10.00      11.30
C       4.32      10.44      10.00
H       5.40      11.95       8.93
O       6.56      13.40      13.43
C       3.94       9.70       8.78
H       1.92       9.22       9.39
O       3.81       7.57       4.24
C       2.68       9.11       8.62
H       5.87      10.00       7.86
O       2.11       6.53       5.35
H       1.41       7.88       7.36
C       4.88       9.57       7.74
O       3.19       8.87      11.42
H       5.31       8.75       5.78
C       2.38       8.37       7.48
H       3.12       8.64      12.37
C       4.58       8.86       6.58
C       3.33       8.23       6.45
C       3.06       7.39       5.26
C       5.65      12.52      13.55
C       5.22      11.80      12.32
