16

S      11.16       7.36      12.93
S      14.75       8.92      11.47
C      10.15       9.54      14.27
O      10.22      10.75      14.65
C      12.42       9.65      13.03
O       9.20       8.71      14.52
C      11.26       9.02      13.46
C      13.48       6.63      11.36
C      12.67       7.50      12.13
C      13.24       8.78      12.27
C      14.65       7.26      10.93
C      15.76       6.75      10.12
O      16.71       7.58       9.87
Br      12.95      11.42      13.37
Br      12.96       4.86      11.03
O      15.69       5.53       9.75
