34

C       6.70      16.03       4.04
C       5.36      15.45       5.77
C       4.45      16.00       3.77
C       3.44      13.60      11.29
C       5.67      13.72      11.66
C       4.84      14.22       9.62
C       8.92      13.81      14.10
C       1.20      15.84       1.34
C      10.11      16.04       1.85
C      -0.01      13.51      13.39
C       2.14      13.43      11.84
C       1.11      13.39      12.49
C       6.77      13.64      12.57
C       7.69      13.66      13.36
C       2.39      16.07       2.12
C       3.32      16.09       2.90
C       7.97      16.17       3.42
C       8.97      16.19       2.73
C       5.20      15.02       7.13
C       5.04      14.64       8.27
N       6.62      15.64       5.33
N       4.24      15.60       5.04
N       5.65      16.25       3.22
N       4.45      13.43      12.16
N       5.93      14.11      10.40
N       3.56      13.98      10.00
O       9.08      13.24      15.22
O       9.78      14.53      13.47
O       1.05      16.39       0.21
O      10.92      17.01       1.72
O      -0.80      12.53      13.55
O      -0.06      14.66      13.97
O      10.18      14.88       1.30
O       0.39      15.04       1.93
