15

C       1.64      12.43      13.74
C       2.55      13.26      13.12
H       1.23      12.66      14.73
H       1.37       9.95      11.59
C       1.72      10.90      11.99
C       2.65      11.67      11.31
H       2.86      14.19      13.59
C       3.08      12.89      11.87
C       4.01      13.73      11.13
H       3.03      11.36      10.35
N       1.21      11.27      13.19
N       4.34      15.00      11.45
N       5.14      15.40      10.47
N       5.29      14.39       9.60
N       4.59      13.34       9.98
