52

H      12.18       9.57       5.17
H      12.36       4.39      10.20
N      16.36       8.23       7.12
H      15.71       6.78       8.40
H      14.53      10.24       5.13
N      17.14       9.88       5.66
H      10.08       4.62      11.13
N       8.20       6.54       9.09
N       7.51       5.41      11.01
H       8.80       7.60       7.44
H       7.77       5.00      11.90
H       6.65       5.97      11.00
H      16.93      10.48       4.87
H      18.06       9.44       5.67
H       9.57      10.25       6.46
H       7.75      10.61       4.80
H       7.30       8.90       3.05
H       8.60       6.79       3.02
H      10.35       6.38       4.73
H      14.73       5.04      10.88
H      16.58       3.39      10.91
H      17.32       2.28       8.81
H      16.19       2.84       6.67
H      14.35       4.51       6.62
C      14.76       9.45       5.84
C       9.83       5.29      10.30
C      16.09       9.19       6.19
C       8.51       5.74      10.16
C      15.38       7.49       7.65
C       9.15       6.96       8.24
C      14.02       7.62       7.30
C      10.51       6.62       8.36
C      13.73       8.68       6.38
C      10.83       5.72       9.43
C      12.94       6.83       7.85
C      11.58       7.18       7.55
C      11.34       8.13       6.48
C      13.17       5.70       8.73
C      12.38       8.87       5.97
C      12.16       5.23       9.52
C      10.08       8.29       5.70
C       9.34       9.48       5.71
C       8.33       9.69       4.77
C       8.07       8.73       3.79
C       8.80       7.54       3.78
C       9.78       7.31       4.74
C      14.41       4.88       8.75
C      15.05       4.55       9.95
C      16.08       3.62       9.97
C      16.50       3.00       8.80
C      15.87       3.32       7.59
C      14.85       4.27       7.56
