46

N       2.71      12.81      13.14
N       4.56      14.76      13.06
N       2.67      13.76      14.05
N       4.70      13.74      12.24
H       2.01      10.78      12.07
H       5.31      16.73      14.19
O       2.14      19.86      17.80
O       4.50       8.34       7.71
O       4.38      19.64      18.02
O       2.23       8.47       7.58
O       5.22      13.04       9.67
O       1.03      15.53      15.34
F       1.68       8.87      10.36
F       5.42      18.83      15.67
F       5.07      11.07       7.86
F       1.08      17.52      17.13
H       6.99      11.98       9.36
H       6.67      12.48      11.05
H       6.99      14.87      10.44
H       0.68      15.06      17.35
H       1.69      13.89      16.44
H       8.44      13.93       9.99
H       7.27      14.42       8.73
H      -0.30      13.30      15.02
H      -0.59      12.95      16.74
H      -1.32      14.40      15.99
C       3.26      19.34      17.51
C       3.37       8.81       8.03
C       2.57       9.89      10.20
C       4.36      17.99      15.65
C       2.64      10.85      11.19
C       4.41      16.92      14.78
C       3.57      11.90      11.07
C       3.33      16.02      14.70
C       4.39      11.99       9.92
C       2.17      16.27      15.47
C       4.28      10.97       8.96
C       2.18      17.36      16.36
C       3.39       9.90       9.07
C       3.26      18.24      16.49
C       3.47      14.83      13.85
C       3.64      12.89      12.15
C       6.62      12.80      10.00
C       7.37      14.09       9.77
C       0.80      14.54      16.39
C      -0.43      13.75      16.01
