74

C       8.72       0.29      30.35
C       8.72      -0.30      27.39
H       5.41       1.59      31.87
H       5.41      -1.60      25.86
C       5.80       0.09      34.44
C       5.80      -0.09      23.30
C       2.87       0.59      36.79
C       2.87      -0.60      20.95
H       5.45       0.78      29.56
H       5.45      -0.79      28.18
C       4.69      -0.18      35.24
C       4.69       0.17      22.50
N       7.45       1.67      33.57
N       7.46      -1.68      24.17
H      10.65      -4.99      24.31
H      10.65       4.98      33.43
H       9.65      -0.10      29.95
H       9.65       0.09      27.79
C       4.53       2.17      35.79
C       4.53      -2.18      21.95
H       8.93       3.55      32.33
H       8.94      -3.56      25.40
C      11.43       4.92      36.04
O      11.82       5.96      35.41
C      11.43      -4.93      21.70
O      11.82      -5.97      22.33
C       4.05       0.86      35.92
C       4.05      -0.87      21.82
H      10.04       2.91      37.14
H      10.04      -2.92      20.60
C      10.45       4.04      35.36
O      11.79       4.58      37.22
C      10.46      -4.04      22.38
O      11.79      -4.59      20.52
C       7.51       1.22      32.23
C       7.51      -1.23      25.51
H       6.04       3.45      34.94
H       6.04      -3.46      22.80
C      10.14       4.20      34.00
O       2.64      -0.63      37.10
C      10.15      -4.21      23.74
O       2.64       0.62      20.64
C       8.70       0.76      31.66
C       8.70      -0.77      26.08
H       6.30      -0.72      33.90
H       6.30       0.71      23.84
C       9.18       3.41      33.39
O       2.19       1.60      37.17
C       9.18      -3.42      24.35
O       2.19      -1.61      20.58
C       8.80       2.27      35.50
C       8.81      -2.27      22.24
H       4.32      -1.19      35.35
H       4.32       1.19      22.39
C       9.78       3.05      36.09
C       9.78      -3.05      21.65
C       6.34       1.21      31.45
C       6.34      -1.22      26.29
H       4.00       2.98      36.31
H       4.01      -2.99      21.43
C       8.48       2.44      34.14
C       8.49      -2.45      23.60
C       6.37       0.74      30.14
C       6.37      -0.75      27.59
H       9.62       0.75      32.25
H       9.62      -0.76      25.49
C       5.65       2.44      35.03
C       5.66      -2.45      22.71
C       7.55       0.26      29.56
C       7.55      -0.27      28.18
H       8.27       1.51      36.08
H       8.28      -1.52      21.66
C       6.30       1.39      34.34
C       6.30      -1.40      23.40
