23

H       6.42      10.20       4.07
H      10.45       9.06       3.19
H      10.81       8.36       5.56
H       5.95       9.36       8.84
H       9.98       8.17       7.90
H       5.36      10.55       5.58
C       8.40       9.67       3.53
C       8.00       8.72       8.49
C       6.54       9.65       6.80
C       6.74       9.25       8.10
C       9.03       8.58       7.57
C       8.83       8.94       6.22
C       7.56       9.48       5.81
C       7.37       9.81       4.45
C       9.65       9.15       3.93
C       9.85       8.78       5.24
C       8.16      10.14       2.14
C       8.21       8.24       9.88
O       7.16       7.99      10.58
O       6.97      10.38       1.79
O       9.21      10.31       1.39
O       9.40       8.07      10.27
O       5.32      10.19       6.48
