18

O       0.43      10.12      15.49
C      -2.72      11.37      14.19
C      -0.78      10.56      15.51
O      -5.47      12.05      12.05
H      -0.07       9.58      13.00
N      -4.70      12.24      13.00
H      -3.11      11.79      15.11
C      -2.95      10.97      11.81
C      -1.28       9.69      10.49
C      -3.42      11.51      13.00
C      -1.50      10.68      14.19
O      -0.29       8.87      10.51
O      -1.37      10.92      16.56
O      -4.91      13.01      13.95
H      -3.51      11.10      10.89
O      -1.89      10.03       9.44
C      -1.74      10.26      11.81
C      -1.01      10.12      13.00
