29

O       8.47       5.85       8.34
O       6.25       5.44       8.39
H       6.80       4.18      15.13
H       5.47       4.88      13.16
H       9.55       4.98      10.34
H      11.19       3.97      11.14
H      13.34       3.65      12.26
H      13.55       4.18      14.72
H       9.00       4.10      16.22
C      10.07       4.33      12.97
C      10.15       4.37      14.39
C       8.79       4.58      12.34
C       7.61       4.58      13.14
C       7.71       4.31      14.54
C       8.94       4.26      15.15
C       8.67       4.91      10.97
C       6.26       5.18      11.19
C      11.45       4.44      15.00
C      11.63       4.95      16.39
C       7.39       5.53       8.93
C       6.36       4.87      12.54
C       7.45       5.21      10.39
C      12.57       4.16      14.23
C      12.46       3.91      12.85
C      11.24       4.07      12.22
C       4.96       5.49      10.67
N       3.85       5.71      10.38
O      12.79       4.84      16.92
O      10.63       5.51      16.95
