30

H       9.31      12.34       5.23
H       8.42      13.24       7.39
H      12.35       9.31       5.23
H      13.24       8.42       7.39
H      12.34       9.31      12.02
H      13.24       8.42       9.86
H       9.31      12.35      12.02
H       8.42      13.24       9.86
O      11.63      10.02       3.03
O      10.02      11.63       3.03
C      10.83      10.83       3.61
O      10.02      11.63      14.22
O      11.63      10.02      14.22
C      10.83      10.83      13.65
C       9.97      11.69       5.80
C       9.95      11.70       7.20
C       9.08      12.57       7.95
C      11.69       9.97       5.80
C      11.70       9.95       7.20
C      12.57       9.08       7.95
C      11.69       9.97      11.46
C      11.70       9.95      10.05
C      12.57       9.08       9.31
C       9.97      11.69      11.46
C       9.95      11.70      10.05
C       9.08      12.57       9.31
C      10.83      10.83       5.10
C      10.83      10.83       7.92
C      10.83      10.83      12.15
C      10.83      10.83       9.34
