36

C       6.84       0.56       1.31
C       6.84      -0.56       7.08
H       6.00       3.58      -0.07
H       6.00      -3.58       8.45
C       4.97       1.71      -0.42
C       4.97      -1.71       8.81
H       4.25       2.16      -1.11
H       4.25      -2.16       9.50
C       5.83      -0.23       0.71
C       5.83       0.23       7.68
H       5.81      -1.29       0.94
H       5.81       1.29       7.44
C       7.80      -0.10       2.12
C       7.80       0.10       6.27
H       7.73      -1.18       2.25
H       7.73       1.18       6.14
C       4.89       0.33      -0.13
C       4.89      -0.33       8.52
H       4.11      -0.28      -0.58
H       4.11       0.28       8.97
C       9.86      -0.16       3.44
C       9.86       0.16       4.94
H       8.83       1.54       2.58
H       8.83      -1.54       5.81
H       9.79      -1.24       3.27
H       9.79       1.24       5.11
N       8.79       0.51       2.72
N       8.79      -0.51       5.67
H      10.81       0.19       3.03
H      10.81      -0.19       5.35
O       7.80       2.73       1.62
O       7.80      -2.73       6.77
C       6.90       1.98       1.05
C       6.90      -1.98       7.34
C       5.95       2.52       0.14
C       5.95      -2.52       8.25
