34

O       6.81      10.47      23.11
O       6.84      10.46      20.47
H       6.83       8.88      18.36
H       6.67       4.64      18.37
O       6.76       3.08      20.50
O       6.81       3.10      23.14
H       6.83       4.67      25.24
H       6.72       8.91      25.23
H       6.87      10.33      24.07
H       6.90      10.30      19.51
H       6.89       3.25      24.09
H       6.81       3.22      19.54
C       6.74       6.78      16.79
C       6.78       6.77      26.82
C       6.79       7.98      18.97
C       6.78       8.01      20.37
C       6.80       9.24      21.10
C       6.71       5.55      18.98
C       6.74       5.53      20.38
C       6.76       4.30      21.12
C       6.80       5.57      24.63
C       6.78       5.54      23.23
C       6.78       4.31      22.50
C       6.75       8.00      24.63
C       6.76       8.02      23.22
C       6.79       9.25      22.48
C       6.75       6.76      18.28
C       6.76       6.77      21.10
C       6.78       6.79      25.32
C       6.77       6.78      22.51
O       6.48       5.68      16.18
O       7.00       7.89      16.22
O       6.53       7.87      27.42
O       7.04       5.66      27.38
