12

C       4.14       5.23       9.72
O       3.10       4.99       9.03
O       5.31       5.49       9.28
O       2.51       5.66      19.43
O       4.74       5.19      19.61
C       3.67       5.43      18.96
C       4.01       5.21      11.15
C       3.95       5.25      12.38
C       3.90       5.30      13.72
C       3.87       5.35      14.95
C       3.82       5.40      16.29
C       3.78       5.43      17.52
