30

C      13.54       9.98      12.40
C      14.48      12.44       9.66
O      10.60       1.72      16.04
O       9.02       1.86      14.41
O      13.97      12.79       8.54
O      15.59      12.84      10.12
H       9.16       3.89      13.05
H      10.12       6.03      12.27
H      13.16       5.76      15.32
H      12.17       3.60      16.09
H      13.26       7.58      13.79
H      10.83       7.90      11.93
H      11.01       9.39      10.19
H      12.17      11.24       8.98
H      15.07      11.48      12.15
H      13.93       9.65      13.36
C      10.03       2.30      15.06
C      10.60       3.61      14.62
C      10.03       4.31      13.55
C      10.57       5.52      13.13
C      11.70       6.08      13.76
C      12.27       5.36      14.83
C      11.73       4.15      15.26
C      12.30       7.34      13.33
C      11.78       8.17      12.40
C      12.41       9.35      11.84
C      11.89       9.86      10.63
C      12.54      10.88       9.95
C      13.71      11.45      10.47
C      14.18      11.01      11.72
