16

F      21.54      27.47      14.98
F      25.81      24.36      13.61
F      22.93      26.35      16.89
C      22.03      27.06      12.16
O      22.59      27.19      11.02
F      24.31      25.34      11.71
O      25.22      25.27      17.57
O      20.84      27.39      12.46
C      25.27      24.70      16.43
O      25.95      23.67      16.13
C      22.86      26.46      13.25
C      24.44      25.30      15.34
C      22.56      26.68      14.61
C      24.74      25.09      13.99
C      23.32      26.11      15.63
C      23.97      25.64      12.97
