76

H       8.43       2.63       5.79
H       5.80       2.89       5.36
H       4.25      -6.35      10.82
H       6.87      -6.62      11.27
H       0.50      -4.73      12.50
H       4.66      -2.07      12.28
H       7.82      -5.87      13.08
H      10.03      -1.46      12.96
H       2.52      -2.19       3.76
H       5.00       2.07       3.47
H      12.10       1.07       3.93
H       8.01      -1.67       4.34
H       5.09       0.23       7.99
H       7.61      -3.96       8.63
C       8.00       0.49       5.93
C       7.70       1.84       5.89
C       6.30       1.97       5.65
C       5.75       0.70       5.59
C       4.69      -4.21      10.67
C       4.98      -5.56      10.73
C       6.38      -5.69      10.98
C       6.94      -4.43      11.04
C      10.78      -2.87      15.11
C       1.85      -0.82       1.56
C      11.84      -0.65       1.90
C       0.75      -3.06      14.59
C       1.38      -4.10      12.42
C       1.64      -3.14      13.41
C       2.79      -2.35      13.25
C       3.71      -2.60      12.25
C       3.51      -3.63      11.31
C       2.28      -4.30      11.38
C       8.33      -4.91      13.00
C       8.04      -4.04      11.92
C       8.68      -2.79      11.97
C       9.52      -2.42      13.00
C       9.76      -3.28      14.09
C       9.14      -4.52      14.05
C       3.07      -1.26       3.69
C       2.89      -0.43       2.56
C       3.61       0.77       2.54
C       4.44       1.15       3.58
C       4.65       0.32       4.71
C       3.94      -0.89       4.70
C      11.23       0.43       4.06
C      10.96      -0.56       3.09
C       9.83      -1.36       3.30
C       8.94      -1.12       4.33
C       9.16      -0.08       5.26
C      10.38       0.62       5.13
C       5.65      -0.69       8.11
C       6.55      -1.10       7.10
C       7.24      -2.29       7.36
C       7.05      -3.03       8.52
C       6.15      -2.63       9.52
C       5.46      -1.43       9.26
N       6.76      -0.24       5.96
N       5.92      -3.49      10.66
O      10.83      -3.40      16.26
O      11.61      -2.00      14.65
O       1.78      -0.29       0.41
O      12.58       0.35       1.65
O       0.01      -4.07      14.83
O       0.80      -1.99      15.30
O      11.83      -1.75       1.23
O       1.04      -1.71       2.02
F       2.01      -5.29      10.47
F       3.11      -1.38      14.14
F       9.30      -5.41      15.07
F       8.46      -1.89      10.97
F       4.10      -1.76       5.75
F       3.52       1.61       1.47
F      10.66       1.61       6.03
F       9.51      -2.35       2.43
F       4.57      -0.94      10.17
F       8.13      -2.78       6.45
