52

C       6.08      14.82      14.67
C       8.42       8.89       9.47
H       5.31      12.74       9.45
H       3.72      12.48      10.25
H       4.19      11.47       8.85
H      10.01      11.89      13.19
C       4.56      11.99       9.74
C      10.03      11.75      14.28
H      10.59      10.84      14.53
H      10.49      12.62      14.77
C       5.29      14.82      11.68
C      10.46       8.73      11.66
C       5.71      17.18      14.45
C       9.71       9.18       7.57
H       6.22      14.56      11.15
H       5.38      15.84      12.08
H       4.44      14.78      10.99
H      10.88       8.26      10.76
N       6.62      11.66      12.80
N       7.61      11.36      12.08
H       9.86       7.99      12.22
H      11.26       9.12      12.29
O       5.96      16.08      17.27
O       8.08       6.98       7.45
H       6.50      17.21      13.69
H       6.09      17.56      15.41
O       5.82       7.14       7.51
H       9.93      10.25       7.73
H       8.79       9.08       6.98
H      10.53       8.68       7.06
H       4.86      17.81      14.14
O       8.24      16.02      17.28
O       5.10      11.09      10.72
O       8.69      11.53      14.78
O       5.01      13.87      12.72
O       9.65       9.87      11.33
O       5.18      15.85      14.56
O       9.58       8.53       8.86
F       4.94       9.37       8.62
F       8.86      13.49      16.64
C       7.00       7.50       7.85
C       7.10      15.69      16.83
C       7.06      14.73      15.68
C       7.16       8.61       8.86
C       7.93      13.64      15.66
C       6.10       9.42       9.29
C       7.87      12.62      14.69
C       6.16      10.32      10.36
C       6.86      12.71      13.72
C       7.37      10.39      11.10
C       5.97      13.81      13.70
C       8.50       9.65      10.65
