24

C       2.28      10.29       1.18
H       7.26       6.82      -5.02
C       1.27      10.72       2.04
H       8.94       8.72      -4.78
C       0.33       8.62       2.11
H       6.73      10.27      -1.61
C       1.29       8.10       1.26
H       3.04      10.99       0.83
H       1.21      11.76       2.36
H      -0.47       7.99       2.50
H       1.27       7.06       0.96
C       7.16       7.60      -4.26
N       6.09       7.51      -3.45
C       8.07       8.65      -4.12
N       7.92       9.61      -3.19
C       6.86       9.50      -2.39
N       4.31       9.14      -0.70
C       5.93       8.45      -2.50
N       4.00       7.18      -1.76
C       4.77       8.30      -1.64
N       3.00       7.28      -0.87
C       3.21       8.47      -0.25
N       0.29       9.91       2.48
C       2.28       8.96       0.75
