29

C       9.01       8.70       1.89
C       9.82       9.33       0.74
C       9.09      10.48       0.05
C       8.73      11.65       0.93
C       9.56      12.09       1.97
C       9.19      13.19       2.74
C       7.26      13.46       1.50
C       7.56      12.37       0.70
N      11.40       5.61       3.74
N       8.05      13.87       2.52
H      12.52       7.12       4.59
H      11.16       8.97       3.60
H       8.68       5.95       1.76
H      10.15       4.23       2.86
H       8.75       9.48       2.62
H       8.07       8.29       1.50
H      10.79       9.67       1.12
H      10.04       8.55      -0.01
H       8.17      10.10      -0.43
H       9.72      10.86      -0.77
H      10.50      11.58       2.19
H       9.82      13.55       3.55
H       6.35      14.06       1.36
H       6.88      12.10      -0.11
C      11.67       6.91       3.95
C      10.90       7.93       3.39
C       9.81       7.62       2.57
C       9.53       6.26       2.38
C      10.34       5.30       2.98
