37

C       2.61       9.59       4.25
C       2.71      10.65       3.16
H       2.90      10.57       7.17
H       3.45       8.68       5.96
O       4.17       6.40       1.38
H       7.00       8.88       5.93
O       3.65      14.25      10.38
H       5.60       7.95       6.45
O       6.46       6.41       1.36
O       5.93      14.24      10.40
H       5.12       9.51       8.14
H       6.66      10.28       7.77
O       5.33      13.11       5.24
H       5.14      11.22       3.66
H       6.74      10.65       4.07
H       3.09      11.66       5.80
H       6.80      11.97       6.00
H       2.78      11.67       3.56
H       3.57      10.48       2.50
H       1.81      10.62       2.52
H       2.60       8.60       3.77
H       1.63       9.68       4.74
H       4.44      13.02       4.86
C       4.80      13.89       9.95
C       5.32       6.76       1.82
C       3.66       9.58       5.37
C       5.94       8.96       6.18
C       5.71       9.96       7.33
C       4.81      12.96       8.84
C       5.15       9.43       4.92
C       3.55      10.80       6.31
C       4.95      11.22       6.83
C       5.77      11.81       5.64
C       5.74      10.80       4.48
C       4.86      12.19       7.91
C       5.27       8.47       3.85
C       5.32       7.67       2.93
