15

N       3.72       1.13      19.64
C       7.55      -0.36      19.78
H       5.20       0.24      17.34
C       4.98       0.61      19.46
C       6.88       0.07      20.92
C       5.67       0.19      18.32
N       3.54       1.37      20.94
H       8.56      -0.76      19.87
O       8.93      -1.11      17.32
C       5.58       0.56      20.74
C       6.96      -0.30      18.49
N       4.64       1.04      21.62
H       7.34       0.02      21.91
O       6.99      -0.85      16.20
C       7.71      -0.78      17.27
