40

H       9.33       8.92      16.39
H       6.29      10.00      22.08
H       8.85       6.52      22.38
H       5.28       7.41      16.41
H       9.32       9.81      12.78
H       6.31      10.71      25.77
H       8.92       6.53      26.15
H       5.08       6.72      12.82
C       7.26       8.21      12.26
C       7.58       8.64      26.34
C       8.40       8.69      14.47
C       6.90       9.44      24.06
C       8.31       7.46      24.23
C       6.14       7.77      14.47
C       8.43       8.59      15.86
C       6.87       9.28      22.67
C       8.30       7.34      22.84
C       6.16       7.75      15.87
C       7.32       8.12      16.57
C       7.56       8.24      22.05
C       7.26       8.23      13.76
C       7.61       8.52      24.84
C       7.48       8.07      20.60
C       7.36       8.02      18.03
C       9.52       9.41      13.80
C       6.22      10.61      24.67
C       9.00       6.42      25.04
C       4.92       7.20      13.81
N       6.21       8.27      18.71
N       8.56       7.61      19.93
N       6.27       8.31      20.02
N       8.50       7.58      18.61
O       8.34       7.85      11.68
O       6.50       8.36      26.93
O       8.66       9.03      26.91
O       6.19       8.53      11.67
O      10.60       9.62      14.35
O       5.60      11.45      24.02
O       9.61       5.48      24.55
O       3.82       7.22      14.33
