22

H       7.09       3.48       8.17
H       8.70       2.10       9.41
H       6.55       2.80      13.06
H       8.40       1.70      11.86
H       2.86       5.58      11.81
H       2.92       5.63       9.31
C       4.64       4.61      13.49
C       4.81       4.83       7.70
C       4.81       4.64       9.19
C       5.86       3.95       9.89
C       3.73       5.16       9.88
C       6.97       3.33       9.24
C       7.87       2.56       9.94
C       4.68       4.49      12.00
C       3.68       5.11      11.28
C       5.75       3.81      11.32
C       6.68       2.97      12.00
C       7.71       2.35      11.32
O       3.49       4.67      14.04
O       3.67       4.89       7.14
O       5.92       4.97       7.10
O       5.76       4.67      14.10
