28

H       1.65      14.72       2.85
H      -1.45       6.69      -2.85
C      -0.20      14.98       4.69
C       0.41       6.43      -4.69
C      -1.07      11.98       2.45
C       1.28       9.43      -2.45
C      -1.17      12.92       3.49
C       1.38       8.49      -3.49
C      -0.18      13.92       3.62
C       0.39       7.49      -3.62
C       0.89      13.96       2.72
C      -0.68       7.45      -2.72
C       0.96      13.06       1.67
C      -0.76       8.35      -1.67
C      -0.01      12.04       1.51
C       0.22       9.37      -1.51
C       0.07      11.11       0.46
C       0.14      10.30      -0.46
Cl      -2.22      10.73       2.30
Cl       2.43      10.68      -2.30
Cl      -2.47      12.77       4.61
Cl       2.68       8.64      -4.61
Cl       2.26      13.19       0.54
Cl      -2.05       8.23      -0.54
O      -1.33      15.45       5.02
O       1.53       5.96      -5.02
O       0.94      15.33       5.14
O      -0.73       6.08      -5.14
