30

H       1.09      25.37      20.53
H       5.58      27.22      25.16
H       1.71      28.43      23.58
H       4.95      24.16      22.12
C       3.57      31.02      27.00
C       3.10      21.57      18.69
C       3.07      22.72      19.64
C       3.59      29.86      26.05
C       4.11      22.99      20.55
C       2.55      29.60      25.14
C       4.11      24.05      21.45
C       2.56      28.54      24.25
C       3.01      24.93      21.47
C       3.66      27.66      24.23
C       1.95      24.71      20.57
C       4.72      27.88      25.13
C       2.00      23.63      19.70
C       4.67      28.95      26.00
C       2.91      26.07      22.37
C       3.76      26.52      23.33
O       2.43      31.40      27.42
O       4.23      21.18      18.28
O       4.69      31.51      27.33
O       1.97      21.08      18.37
F       5.18      22.16      20.60
F       1.48      30.43      25.10
F       5.70      29.09      26.86
F       0.96      23.50      18.83
F       4.91      25.80      23.49
F       1.75      26.79      22.20
