20

H       2.14       4.31       9.91
H       1.05       6.88      14.53
H       2.83       6.92      14.50
H       2.91       4.72      15.71
H       1.13       4.67      15.75
C       1.98       1.75      13.85
C       2.00       6.82      10.94
C       2.01       5.54      11.68
C       2.01       3.02      13.09
C       1.95       5.47      13.07
C       2.04       3.09      11.68
C       2.00       4.25      13.74
C       2.08       4.31      10.99
C       1.95       6.28      14.35
C       2.00       4.90      15.12
Cl       2.10       1.64      10.74
O       2.90       1.58      14.71
O       1.02       0.94      13.63
O       2.93       7.03      10.10
O       1.05       7.64      11.21
