16

O       5.53       8.84      12.75
O       5.82       6.92      13.79
H       6.84       9.89      14.45
H       9.63       8.04      12.85
C       7.70      10.41      16.38
N       6.21       7.86      13.10
Cl      10.07       8.42      15.52
O       6.55       6.85      10.74
C       7.68       7.14      11.26
C       8.67       8.86      14.62
C       7.71       9.70      15.08
C       8.66       8.22      13.31
C       7.60       7.79      12.60
O       8.83       6.93      10.77
O       8.81      10.66      16.93
O       6.54      10.73      16.82
