26

Cl      16.43      17.55       2.46
Cl      17.81      16.80      -2.18
C      13.80      17.71      -1.21
C      14.79      16.74      -1.12
H      14.25      19.21       1.81
C      15.63      16.64       0.01
C      16.70      15.62       0.04
H      15.93      14.64       1.79
H      13.17      17.79      -2.10
H      14.93      16.03      -1.94
H      19.46      14.56      -1.70
H      17.72      12.90       1.86
O      12.11      19.93      -1.41
O      12.25      20.28       0.83
O      20.40      12.45      -1.03
O      19.91      11.86       1.11
C      12.57      19.69      -0.25
C      19.75      12.56       0.06
C      13.61      18.61      -0.15
C      18.69      13.62       0.08
C      14.41      18.52       0.99
C      15.41      17.55       1.06
C      18.69      14.59      -0.93
C      17.71      15.58      -0.94
C      17.71      13.65       1.08
C      16.72      14.63       1.04
