28

H       6.88       8.50       4.70
H       6.94       8.39       2.20
H       2.92       6.80       4.67
H       6.99       8.25      -4.74
H       3.10       6.41      -4.63
H       3.14       6.49      -2.13
C       5.07       7.21      -6.32
C       4.84       7.79       6.31
C       4.89       7.67       4.83
C       6.03       8.10       4.13
C       6.07       8.04       2.75
C       4.98       7.51       2.02
C       3.86       7.04       2.74
C       3.80       7.14       4.13
C       5.02       7.47       0.61
C       5.07       7.47      -0.61
C       5.07       7.43      -2.02
C       6.15       7.95      -2.78
C       6.15       7.87      -4.17
C       5.05       7.31      -4.83
C       3.96       6.83      -4.10
C       3.97       6.88      -2.71
Cl       2.52       6.35       1.89
Cl       7.50       8.67      -1.97
O       6.20       7.38      -6.90
O       5.92       8.09       6.91
O       3.71       7.60       6.88
O       3.97       6.94      -6.91
