42

C       5.40       1.30       0.39
H       3.95      -1.82      -1.33
C       4.48       0.44      -0.26
C      -4.60       0.40      -0.89
C      -5.53      -0.36      -1.65
H      -4.08       1.95       1.02
C       4.21       2.56       2.01
C       3.31       3.77       1.90
C       2.40       3.87       3.12
C      -4.52      -0.78      -3.77
C      -5.25       0.23      -4.65
C      -4.46       0.57      -5.91
N       6.51      -0.53      -0.10
N       6.61       0.73       0.49
N      -6.75      -0.20      -1.15
N      -6.71       0.64      -0.05
O       4.89      -1.89      -1.07
H       4.82       2.59       2.93
O       5.15       2.53       0.89
H       3.63       1.63       2.01
H       3.94       4.67       1.81
H       2.72       3.69       0.98
H       1.78       2.97       3.23
H       1.72       4.74       3.04
H       2.98       3.99       4.05
O      -5.05       1.82       1.10
O      -5.35      -1.23      -2.67
H      -4.29      -1.70      -4.33
H      -3.58      -0.36      -3.38
H      -6.24      -0.19      -4.92
H      -5.45       1.14      -4.07
H      -3.47       0.99      -5.66
H      -4.99       1.30      -6.52
H      -4.28      -0.33      -6.52
C       5.25      -0.71      -0.53
C      -5.43       0.99       0.11
C       3.12       0.61      -0.51
C      -3.22       0.53      -0.96
C       1.90       0.70      -0.69
C      -2.00       0.67      -0.94
C       0.57       0.76      -0.82
C      -0.66       0.74      -0.90
