16

F       7.34       5.55       9.01
C       4.93       5.57       4.81
O       3.79       5.57       4.23
C       3.71       5.55       7.02
H       2.77       5.55       6.47
H       7.07       5.57       6.47
H       2.80       5.54       8.98
O       5.98       5.51      11.27
O       3.71       5.53      11.18
C       3.72       5.54       8.41
C       4.93       5.54       9.14
C       4.92       5.56       6.31
C       6.12       5.55       8.40
O       6.06       5.57       4.23
C       6.13       5.56       7.01
C       4.87       5.53      10.64
