22

C       4.79       7.92      13.53
C       6.71       7.92      18.25
C       6.05       7.92      14.14
C       5.45       7.92      17.64
C       7.20       7.92      13.34
C       4.30       7.92      18.44
N       5.84       7.92      11.38
N       5.66       7.92      20.41
N       6.28       7.92      15.55
N       5.22       7.92      16.24
H       7.90       7.92      11.28
H       3.60       7.92      20.51
H       3.78       7.92      11.61
H       7.72       7.92      20.18
H       3.88       7.92      14.14
H       7.62       7.92      17.65
H       8.19       7.92      13.81
H       3.32       7.92      17.98
C       7.05       7.92      11.96
C       4.45       7.92      19.83
C       4.73       7.92      12.15
C       6.77       7.92      19.64
