13

C      -0.78       5.16       3.12
O       0.00       5.95       4.01
O       2.39       5.51       6.56
H       1.46       4.51       4.33
C      -1.59       6.09       2.24
O      -2.39       5.51       1.46
H       0.14       4.53       5.54
H      -1.46       4.51       3.69
O       1.38       7.35       5.67
C       0.78       5.16       4.90
H      -0.14       4.53       2.48
O      -1.38       7.35       2.35
C       1.59       6.09       5.78
