33

H       3.81      15.66       2.86
H       5.47      17.04       1.73
H       7.03      13.08      -0.89
H       2.24      16.25       6.59
H      -0.76      13.20       6.49
H       1.86      10.98       3.61
H       8.14      15.29      -1.18
H       5.32      11.68       0.14
H       3.42      15.20       4.69
H       0.32      12.18       4.49
H       7.34      17.26       0.12
O      -1.05      14.91       8.31
O       0.51      16.53       8.27
C       1.94      13.63       4.45
C       4.14      14.78       2.31
C      -0.03      15.42       7.83
C       3.60      13.52       2.50
C       5.17      14.92       1.36
C       5.81      16.17       1.15
C       6.69      13.96      -0.34
C       4.02      12.41       1.70
C       5.62      13.79       0.58
C       1.83      15.36       6.12
C       0.67      14.80       6.65
C       0.15      13.63       6.06
C       2.51      11.66       3.07
C       7.30      15.18      -0.49
C       5.00      12.53       0.74
C       2.47      14.78       5.03
C       0.76      13.06       4.96
C       6.85      16.30       0.26
N       3.30      11.28       2.09
N       2.63      12.99       3.37
