13

O       4.89       7.10       6.56
C       5.69       6.52       5.78
O       7.28       6.66       4.01
O       9.66       7.10       1.46
C       8.87       6.52       2.24
H       5.82       8.10       4.33
H       8.74       8.10       3.69
H       7.14       8.07       5.54
O       5.90       5.26       5.67
H       7.41       8.07       2.48
O       8.65       5.26       2.35
C       6.50       7.45       4.90
C       8.06       7.45       3.12
