15

H       7.23       8.47      14.06
C       5.63      11.88      11.40
O       5.18      14.28       9.94
C       6.56       9.02      13.39
H       4.72      11.97      10.79
C       5.77      10.62      12.08
C       6.44      12.95      11.49
N       6.85      10.22      12.86
C       4.84       9.58      12.18
H       7.79      10.67      12.89
N       5.35       8.60      13.00
H       7.34      12.94      12.11
C       6.12      14.22      10.82
O       6.80      15.25      11.15
H       3.86       9.50      11.73
