30

N      -3.90       7.28      12.07
H      -3.82      10.38      12.18
H      -2.43       9.34      11.82
H      -3.42       7.98      13.98
H      -4.93       8.59      13.32
H      -4.83       6.51      10.40
H      -4.52       8.25      10.27
H      -6.46       7.09      12.33
H      -6.50       8.74      11.65
H      -1.92       6.79      13.84
H       0.15       5.59      13.41
H       0.69       4.73      11.12
O      -1.59       9.44      14.37
O      -2.39      11.51      13.88
O      -8.24       7.95      10.07
O      -7.04       6.02       9.93
H      -3.01       6.36       9.66
H      -0.93       5.14       9.26
C      -2.32      10.25      13.70
C      -3.15       9.63      12.60
C      -3.89       8.35      13.06
C      -4.83       7.44      10.97
C      -6.28       7.69      11.42
C      -7.27       7.19      10.39
C      -2.67       6.65      11.80
C      -1.73       6.43      12.83
C      -0.54       5.75      12.58
C      -0.24       5.27      11.30
C      -1.15       5.50      10.27
C      -2.34       6.18      10.51
