57

H       4.96       6.82      13.21
H       5.87       8.46      14.84
H       1.78       9.23      16.07
H       1.06       7.58      14.36
H       2.92      11.28      16.64
H       2.94      10.01      17.92
H       3.95      16.27      13.21
H       3.05      14.63      14.84
H       7.13      13.87      16.07
H       7.85      15.51      14.36
H       5.99      11.81      16.64
H       5.97      13.08      17.92
H       3.95       6.82      23.11
H       3.05       8.47      21.48
H       7.13       9.22      20.25
H       7.85       7.58      21.96
H       5.99      11.28      19.68
H       5.98      10.01      18.40
H       4.97      16.27      23.11
H       5.86      14.63      21.48
H       1.78      13.87      20.25
H       1.06      15.52      21.96
H       2.92      11.81      19.68
H       2.94      13.08      18.40
C       4.29       7.38      13.86
C       4.79       8.28      14.78
C       3.90       8.98      15.60
C       2.53       8.72      15.46
C       2.12       7.79      14.51
C       3.56      10.66      17.28
C       4.62      15.72      13.86
C       4.12      14.81      14.78
C       5.01      14.12      15.60
C       6.38      14.37      15.46
C       6.79      15.30      14.51
C       5.35      12.43      17.28
C       4.62       7.38      22.46
C       4.12       8.28      21.54
C       5.02       8.98      20.72
C       6.38       8.72      20.85
C       6.79       7.79      21.81
C       5.35      10.66      19.04
C       4.29      15.72      22.46
C       4.79      14.81      21.54
C       3.90      14.12      20.72
C       2.53      14.37      20.85
C       2.12      15.30      21.81
C       3.56      12.43      19.04
C       4.46      11.55      18.16
N       2.97       7.13      13.70
N       5.94      15.96      13.70
N       5.94       7.13      22.62
N       2.97      15.96      22.62
O       4.44       9.87      16.48
O       4.47      13.23      16.48
O       4.47       9.87      19.84
O       4.44      13.23      19.84
