16

O       5.46       0.33      24.88
H       0.73       1.11      25.67
C       3.43      -0.87      27.64
C       1.13      -0.12      27.39
O       2.61      -2.33      29.92
C       5.21      -0.21      26.01
C       1.49       0.55      26.22
H       3.08       1.00      24.83
O       0.50      -1.66      29.68
C       2.10      -0.85      28.10
C       1.74      -1.64      29.30
C       2.80       0.50      25.76
H       4.18      -1.43      28.19
C       3.79      -0.20      26.47
O       6.07      -0.75      26.78
H       0.11      -0.10      27.76
