18

C      18.48      14.73       2.02
H      18.64       9.05       2.16
H      18.32      14.11       5.99
O      18.58      14.55       0.75
C      18.55       9.78       3.92
O      18.60       7.32       5.51
O      18.40      15.85       2.63
O      18.39       8.61       7.39
C      18.41      13.38       4.23
S      18.38      11.19       6.13
S      18.57      11.98       2.02
C      18.49       8.44       6.12
C      18.48       9.65       5.31
C      18.48      13.52       2.84
C      18.44      12.02       4.62
C      18.52      11.14       3.53
O      18.63       8.72       3.07
O      18.34      14.44       5.07
