30

N       0.12       5.00       9.08
N      -2.58       4.80       8.37
N       0.01       7.08      11.37
H      -2.71       8.26      10.57
H      -2.35       6.53      10.56
H      -2.29       9.57       8.48
H       0.14       6.01       7.23
O       1.16       4.47       8.74
O      -0.57       4.75      10.08
O      -2.14       3.82       7.79
O      -3.49       4.86       9.19
O       1.19       6.74      11.23
O      -0.69       6.99      12.37
F      -0.47       9.15      10.47
F      -2.58       8.86       6.61
F      -0.09       8.23       6.51
F      -2.10       6.17       6.56
F       0.08       9.83       8.00
C      -1.90       6.16       7.92
C      -2.14       7.48      10.06
C      -0.65       7.82      10.15
C      -2.56       7.40       8.57
C      -0.37       6.15       8.19
C       0.06       7.53       8.80
C      -0.48       8.61       7.76
C      -2.03       8.70       7.86
C       1.51       7.62       8.81
C      -4.00       7.38       8.45
N       2.64       7.69       8.61
N      -5.15       7.46       8.37
