24

H       2.98       6.72       4.59
H       2.87       6.72       2.13
H       7.21       6.72       2.10
H       7.14       6.72       4.58
H       1.91       6.72      -2.10
H       6.25       6.72      -2.13
H       6.15       6.72      -4.59
H       1.99       6.72      -4.58
H       6.10       6.72      -0.01
H       3.02       6.72       0.01
C       3.89       6.72       4.00
C       3.85       6.72       2.62
C       5.05       6.72       1.87
C       6.24       6.72       2.61
C       6.22       6.72       4.00
C       5.09       6.72       0.42
C       4.03       6.72      -0.42
C       2.88       6.72      -2.61
C       4.08       6.72      -1.87
C       5.27       6.72      -2.62
C       5.23       6.72      -4.00
C       2.91       6.72      -4.00
N       5.06       6.72       4.68
N       4.07       6.72      -4.68
