22

H       9.84       7.68       4.06
O       6.96       3.12       5.45
H      10.15       4.74       0.29
H       8.93       2.74      -0.46
H       7.18       1.71       1.01
H       6.66       2.71       3.20
O      11.00       7.93       1.77
H       8.05       6.69       5.50
O      11.84       5.82       1.51
O       6.00       5.15       5.82
C       9.39       4.30       0.93
C       8.70       3.18       0.51
C       7.72       2.60       1.34
C       7.42       3.16       2.56
C       8.10       4.32       3.02
C       9.12       4.90       2.19
C       9.77       6.10       2.62
C       9.36       6.74       3.77
C       8.35       6.19       4.58
C       7.76       4.98       4.25
C      10.95       6.66       1.90
C       6.83       4.37       5.24
