38

S       6.55      10.57      23.62
S       6.50       2.67      20.11
O       6.70       5.91      16.20
O       6.45       8.15      16.34
H       6.50       9.03      18.65
H       6.50      10.10      20.87
H       6.58       4.76      18.29
H       6.50       4.21      25.07
H       6.47       3.13      22.85
O       6.74       7.33      27.52
O       6.48       5.08      27.38
H       6.63       8.47      25.43
O       5.13      10.53      24.43
O       6.48      11.66      22.69
O       7.54      10.51      24.66
O       5.07       2.71      19.31
O       6.43       1.58      21.04
O       7.49       2.71      19.07
H       4.46      11.00      23.88
H       4.41       2.24      19.85
C       6.56       6.99      16.85
C       6.60       6.24      26.87
C       6.52       8.05      19.13
C       6.52       7.95      20.53
C       6.51       9.12      21.35
C       6.54       5.63      18.94
C       6.52       5.48      20.33
C       6.50       4.21      21.01
C       6.52       5.18      24.59
C       6.51       5.28      23.19
C       6.49       4.11      22.37
C       6.58       7.60      24.78
C       6.55       7.75      23.39
C       6.53       9.03      22.72
C       6.54       6.90      18.35
C       6.52       6.66      21.15
C       6.56       6.34      25.38
C       6.53       6.57      22.57
