42

C       7.57       4.96       0.30
C       4.54      13.47      -0.38
C       7.39       5.19       3.64
C       8.36       4.30       4.40
C       9.05       5.05       5.53
H       6.59       5.56       4.30
H       7.90       6.06       3.20
H       7.81       3.43       4.80
H       9.11       3.91       3.70
H       9.61       5.92       5.15
H       9.77       4.41       6.06
H       8.33       5.43       6.27
C       7.33      14.06      -1.27
H       7.98      14.71      -1.87
H       6.67      13.51      -1.95
C       8.17      13.12      -0.41
H       8.82      13.71       0.25
H       7.51      12.52       0.23
H       8.35      11.58      -1.94
H       9.62      11.51      -0.71
H       9.67      12.77      -1.96
N       3.13      15.15       0.13
H       8.48       5.27      -2.01
H       2.37      12.16      -0.28
N       8.15       3.09       1.40
N       4.39      15.73      -0.03
N       8.79       3.05       0.16
O       6.54      14.99      -0.47
O       8.87       4.41      -1.74
O       2.10      13.07      -0.05
O       6.68       4.48       2.58
C       9.00      12.20      -1.31
C       4.97      12.16      -0.57
C       7.04       6.20      -0.06
C       5.30      10.98      -0.68
C       6.60       7.31      -0.35
C       5.72       9.71      -0.68
C       6.14       8.54      -0.58
C       7.44       4.21       1.49
C       5.24      14.72      -0.30
C       8.42       4.15      -0.49
C       3.20      13.85      -0.11
