76

H      10.65       6.61       3.43
H       6.22      11.64      -3.44
H       6.82       7.50      -9.79
H       9.64      10.44       9.79
H       6.84       7.45      -7.28
H       9.62      10.51       7.28
H      10.27       6.28      -3.44
H       5.90      11.36       3.44
H      10.32       6.28      -0.97
H       5.91      11.42       0.97
H      10.66       6.57       0.95
H       6.17      11.65      -0.97
H       6.81       5.85       9.43
H       6.88       6.76      10.96
H       5.55       7.03       9.82
H       9.83      11.99      -9.45
H      11.02      10.76      -9.89
H       9.67      11.10     -10.98
H       5.52       7.01       7.36
H       6.56       7.19       5.94
H       6.91       5.94       7.14
H      10.08      10.62      -5.97
H      11.07      10.81      -7.43
H       9.71      11.91      -7.14
C       8.23       8.89      11.40
C       8.29       8.99     -11.41
C       9.13       8.06       5.04
C       7.51       9.98      -5.05
C       7.37       9.84       5.05
C       9.03       7.98      -5.05
C       9.01       9.79       7.83
C       7.47       8.14      -7.84
C       9.02       9.75       9.22
C       7.46       8.17      -9.22
C       7.43       7.90       9.20
C       9.12       9.97      -9.22
C       7.42       7.94       7.78
C       9.14       9.93      -7.80
C       8.21       8.89       7.13
C       8.31       9.02      -7.15
C       8.27       8.98       2.85
C       8.25       8.97      -2.87
C       9.13       8.10       3.56
C       7.51       9.94      -3.57
C       9.99       7.26       2.86
C       6.78      10.90      -2.88
C       7.41       9.85       3.57
C       9.00       7.99      -3.57
C       8.22       8.83       9.90
C       8.30       9.06      -9.91
C       9.05       8.01      -0.74
C       7.42       9.90       0.73
C       7.47       9.94      -0.74
C       9.11       8.06       0.72
C       8.26       8.97      -1.43
C       8.27       8.98       1.42
C       9.75       7.05      -1.48
C       6.58      10.73       1.47
C       9.72       7.03      -2.88
C       6.57      10.71       2.87
C       9.97       7.24       1.46
C       6.75      10.89      -1.48
C       6.63       6.83       9.90
C       9.95      11.01      -9.93
C       6.56       6.98       7.01
C      10.04      10.86      -7.04
N       8.24       8.94       5.69
N       8.28       8.99      -5.70
O       7.10       8.91      11.99
O       9.41       8.96     -12.00
O       7.15       8.93     -11.98
O       9.37       8.95      11.97
O       9.86       7.30       5.69
O       6.90      10.82      -5.70
O       9.68       7.16      -5.70
O       6.61      10.55       5.70
