30

H       5.59       3.18      12.60
C       3.89       4.47      12.70
C       1.96       2.97      23.23
C       1.09       3.43      20.87
C       4.00       4.74      11.22
C       2.04       2.85      21.73
C       3.13       2.19      21.16
C       2.84       4.62      14.86
C       3.30       2.10      19.78
C       2.40       2.72      18.91
C       1.29       3.36      19.49
C       2.88       5.00      13.52
C       4.82       3.58      13.25
C       4.75       3.20      14.58
C       3.76       3.72      15.43
C       2.65       2.84      17.47
C       3.69       3.45      16.88
Cl       5.88       2.05      15.19
Cl       1.71       6.16      13.01
Cl       4.95       4.15      17.83
Cl      -0.27       4.30      21.45
O       0.86       2.69      23.79
O       3.04       3.35      23.80
O       2.94       5.06      10.59
O       5.15       4.56      10.70
F       4.07       1.60      21.94
F       0.41       3.97      18.66
F       1.90       5.15      15.66
F       1.65       2.34      16.68
F       4.36       1.43      19.30
