24

N       8.40       4.85       5.31
N       1.55       0.90      12.25
N       9.49       5.48       5.77
H       5.13       2.96      12.44
H       2.60       1.50       8.29
O       6.23       3.60      10.17
O       4.81       2.78       7.85
H       5.90       3.41       5.59
H       8.44       4.87       9.73
C       3.36       1.94      11.64
C       4.58       2.64      11.55
C       5.04       2.91      10.28
C       2.66       1.53      10.48
C       3.13       1.81       9.19
C       4.32       2.50       9.11
C       8.38       4.84       7.54
C       7.91       4.57       8.84
C       6.71       3.88       8.91
C       7.67       4.43       6.38
C       6.46       3.73       6.47
C       6.00       3.46       7.74
N       2.64       1.52      12.71
N       1.54       0.89      10.91
N       9.50       5.49       7.11
