33

N       2.27      17.47       8.48
N       1.58      18.45       9.14
N      -8.39      11.99       3.05
N      -8.94      12.55       4.18
H      -5.31      22.69       0.17
H      -1.73      20.98      -1.59
H      -0.26      19.45       8.79
H       1.94      16.35       6.70
H      -8.46      14.22       5.39
H      -6.73      12.48       1.82
C      -4.34      16.70       3.59
C      -3.45      18.55       2.62
C      -2.51      17.69       4.49
C      -4.44      22.44      -0.43
C      -3.51      21.39      -0.27
C      -2.60      21.57      -1.33
C       0.45      18.71       8.45
C       0.39      17.88       7.32
C       1.57      17.12       7.38
C      -8.21      13.62       4.53
C      -7.15      13.79       3.60
C      -7.32      12.73       2.69
C      -5.32      15.67       3.60
C      -6.17      14.79       3.60
C      -1.49      17.74       5.50
C      -0.62      17.81       6.34
C      -3.48      19.55       1.59
C      -3.49      20.40       0.73
N      -4.41      17.61       2.59
N      -2.47      18.64       3.54
N      -3.42      16.70       4.57
N      -2.97      22.63      -2.07
N      -4.10      23.18      -1.51
