40

N      24.97      10.76      15.28
N      30.35      10.81      16.87
N      28.57       8.13      16.28
N      26.76      13.43      15.86
H      27.80      15.20      20.98
H      26.42       5.56      13.37
O      24.18      10.00      15.84
O      24.76      11.47      14.29
O      31.16      11.50      16.25
O      30.57      10.17      17.91
H      30.43      11.80      21.45
O      29.69       7.94      15.80
O      27.78       7.27      16.70
O      25.69      13.65      16.44
O      27.48      14.26      15.29
H      24.66       8.65      10.88
H      26.34       9.62      17.83
H      28.98      11.93      14.34
C      28.55      14.48      21.29
C      25.83       6.14      12.66
C      29.90      12.73      21.54
C      24.93       7.74      11.40
C      28.86      13.22      20.73
C      25.93       7.53      12.36
C      26.35      10.78      15.77
C      28.97      10.78      16.40
C      26.92      10.13      17.06
C      28.40      11.41      15.10
C      28.37      12.63      19.55
C      26.67       8.49      13.05
C      27.24      12.04      15.92
C      28.09       9.51      16.25
C      27.81      11.43      17.29
C      27.51      10.12      14.88
C      28.03      12.10      18.51
C      27.25       9.31      13.76
N      29.36      14.71      22.33
N      24.85       5.57      11.96
N      30.20      13.64      22.50
N      24.30       6.57      11.18
