26

N      -3.55       7.14      10.76
O       2.80       5.09       9.54
O       1.27       5.90       8.07
O      -0.94       9.46      14.07
O      -2.28       7.63      13.89
H       1.08       9.38      13.75
H       2.46       9.25      12.77
H       3.57       6.65      10.82
H       3.47       7.47      12.29
H      -4.00       7.42      11.63
H      -3.26       8.00      10.28
H      -1.91       6.23       8.85
H      -1.59       4.68       9.67
H      -2.70       5.50      11.71
C      -1.26       8.31      13.54
C       1.76       5.77       9.26
C      -1.05       6.94      11.49
C      -0.44       7.75      12.45
C       0.95       7.96      12.32
C       1.70       7.23      11.33
C       1.04       6.48      10.34
C      -0.36       6.40      10.42
C      -1.59       5.77       9.79
C      -2.38       6.32      11.05
N       1.67       8.76      13.20
N       3.09       7.38      11.35
