29

C       3.12       2.94      24.62
C       3.13       3.48      17.85
C       3.41       2.15      23.50
C       3.42       4.27      18.97
H       2.10       2.99      26.52
H       2.10       3.43      15.94
H       1.54      -0.54      24.46
H       1.54       6.96      18.00
C       2.83       0.88      23.43
C       2.83       5.54      19.03
H       3.54       3.94      24.74
H       3.54       2.48      17.72
C       4.29       2.66      22.39
C       4.29       3.76      20.07
C       3.45       3.21      21.23
H       3.02       0.22      22.58
H       3.02       6.20      19.88
H       4.96       3.45      22.77
H       4.96       2.97      19.69
H       4.93       1.85      22.02
H       4.93       4.57      20.45
H       2.79       4.01      21.61
H       2.79       2.41      20.85
N       1.75       1.20      25.55
N       1.75       5.22      16.91
C       2.31       2.42      25.62
C       2.31       4.00      16.85
C       2.00       0.45      24.47
C       2.00       5.97      18.00
