34

H       7.39       2.00       7.83
H       4.31      -2.57       7.11
H       9.30       0.51       8.21
H       2.42      -1.08       6.66
H       5.77       3.14       8.10
H       5.66      -3.71       8.05
H       1.63       3.62       7.18
H       9.80      -4.20       8.98
H      10.18      -1.75       8.66
H       1.42       1.17       6.72
C       7.42      -5.53       8.76
C       3.87       4.94       8.05
C       7.69      -4.07       8.53
C       3.73       3.50       7.68
C       9.19      -2.18       8.51
C       2.38       1.61       7.01
C       8.99      -3.53       8.69
C       2.49       2.96       7.27
C       6.64      -3.25       8.15
C       4.84       2.67       7.77
C       6.82      -1.87       7.95
C       4.77       1.29       7.50
C       8.12      -1.32       8.17
C       3.50       0.74       7.15
C       5.72      -0.99       7.60
C       5.91       0.42       7.65
C       7.23       0.92       7.86
C       4.44      -1.50       7.22
C       8.30       0.09       8.08
C       3.38      -0.67       6.97
O       8.42      -6.30       8.94
O       2.90       5.73       7.79
O       6.19      -5.89       8.74
O       4.97       5.28       8.60
