15

C      29.92      10.39      10.31
C      30.60      10.75      11.46
H      30.05      10.96       9.39
H      31.29      11.59      11.47
H      28.29       7.71      11.62
C      29.64       9.03      12.66
C      28.94       8.58      11.55
H      29.54       8.53      13.62
C      28.34       8.86       9.15
C      29.07       9.28      10.34
N      27.61       7.72       9.06
N      27.13       7.73       7.83
N      30.47      10.09      12.63
N      27.54       8.83       7.19
N      28.30       9.56       7.99
