19

H       2.59       3.94       3.28
H       4.64       4.22       1.03
H       3.31       5.32       1.40
H       6.03       5.47       2.44
H       4.68       6.45       3.03
H       4.23       4.98       4.83
H       4.19       2.57       4.54
H       5.36       2.66       3.20
C       2.88       2.36       1.94
C       3.44       3.55       2.69
C       4.07       4.67       1.86
C       5.01       5.42       2.83
C       5.00       4.59       4.14
C       4.54       3.19       3.71
C       6.29       4.58       4.93
O       2.12       1.58       2.62
O       3.18       2.23       0.70
O       7.39       4.75       4.29
O       6.18       4.38       6.19
