26

C      22.48      13.97      18.44
C      21.46      12.80      18.46
C      20.54      12.91      19.70
C      19.82      14.28      19.64
C      20.85      15.43      19.64
C      22.28      14.86      19.68
C      22.45      14.00      20.95
C      21.41      12.86      20.97
O      24.32      15.85      20.43
O      23.13      16.94      18.83
O      18.62      11.86      18.77
O      19.64      10.85      20.53
H      23.51      13.58      18.43
H      22.36      14.58      17.53
H      20.83      12.81      17.56
H      21.98      11.83      18.48
H      19.19      14.31      18.74
H      19.14      14.36      20.51
H      20.74      16.06      18.75
H      20.70      16.09      20.51
H      23.48      13.60      20.97
H      22.35      14.64      21.84
H      20.77      12.93      21.85
H      21.91      11.88      21.02
C      23.32      15.98      19.65
C      19.52      11.79      19.67
