16

O      10.15       7.53       6.58
C      10.75       6.48       9.06
O      11.85       7.22      13.65
C      11.24       8.27      11.16
H      10.95       9.83       9.69
O      11.40       5.12      12.93
H      11.05       4.93      10.54
H      10.56       5.82       8.23
H      11.44       8.94      12.00
O      10.60       9.64       7.30
C      10.46       8.39       7.47
C      11.54       6.37      12.76
C      10.72       7.87       8.84
C      11.28       6.89      11.39
C      10.97       8.76       9.89
C      11.03       6.00      10.33
