32

H      32.51      21.81      18.16
H      30.35      23.06      21.69
H      25.89      25.64      12.75
H      23.72      26.88      16.27
O      23.81      26.83      12.30
O      22.67      27.49      14.16
H      27.80      24.53      19.71
H      30.05      23.23      16.04
H      26.19      25.46      18.39
O      33.56      21.21      20.27
H      28.44      24.16      14.72
O      32.42      21.86      22.13
O      28.39      24.19      20.41
O      30.82      22.79      16.45
O      25.42      25.91      17.98
O      27.84      24.51      14.03
C      23.65      26.93      13.57
C      32.59      21.77      20.87
C      31.53      22.38      20.00
C      31.66      22.31      18.61
C      30.67      22.87      17.81
C      29.55      23.52      18.39
C      29.45      23.58      19.80
C      30.43      23.01      20.60
C      28.55      24.10      17.57
C      27.68      24.60      16.86
C      26.69      25.17      16.05
C      26.78      25.12      14.63
C      25.80      25.68      13.83
C      24.71      26.32      14.43
C      24.58      26.39      15.82
C      25.56      25.82      16.63
