28

H      21.59       7.59      21.82
H      13.94       2.92      19.29
H      20.05       6.29      20.29
H      15.80       3.69      20.81
H      18.05       4.66      23.73
H      18.16       4.73      17.38
H      19.59       5.97      25.25
N      17.98       4.73      21.18
N      18.13       4.82      19.93
H      16.28       3.96      15.86
O      22.39       8.48      23.98
O      12.77       2.62      17.13
O      21.28       7.70      25.76
O      13.97       3.24      15.35
C      21.50       7.72      24.50
C      13.86       3.06      16.60
C      20.66       6.87      23.61
C      15.00       3.42      17.50
C      20.81       6.94      22.22
C      14.87       3.32      18.89
C      19.97       6.22      21.38
C      15.89       3.74      19.73
C      18.96       5.41      21.94
C      17.07       4.26      19.17
C      18.83       5.31      23.33
C      17.23       4.33      17.78
C      19.68       6.03      24.16
C      16.20       3.91      16.94
