40

O       3.52      11.36       1.73
O       9.77      10.20      -1.60
H       8.80      15.61       4.16
H       5.29       6.56      -2.48
H       8.81      13.68       2.57
H       5.43       8.33      -0.76
H       4.71      14.52       1.55
H       8.01      10.61      -3.36
H       4.67      16.35       3.24
H       8.04       8.74      -4.97
H       4.86      10.24      -0.13
H       8.75      13.25       0.27
H       4.84      12.38       2.88
H      10.00      12.15      -1.10
C       6.67       6.42      -4.81
C       6.71      17.17       4.82
C       7.91      15.35       3.59
C       5.91       7.44      -2.65
C       7.92      14.29       2.69
C       5.99       8.45      -1.70
C       6.76      13.95       1.96
C       6.77       9.60      -1.91
C       5.60      14.72       2.15
C       7.45       9.71      -3.13
C       5.57      15.76       3.08
C       7.45       8.67      -4.05
C       6.73      16.08       3.80
C       6.68       7.53      -3.82
C       5.71      11.89       0.92
C       7.96      11.52      -0.70
C       5.73      10.88      -0.05
C       7.88      12.59       0.19
C       6.83      10.67      -0.89
C       6.78      12.82       1.02
C       4.61      11.89       1.91
C       9.33      11.27      -1.20
O       5.54       5.93      -5.13
O       7.84      17.57       5.26
O       7.80       6.05      -5.28
O       5.56      17.60       5.18
