16

C       3.60       9.00      13.12
C       5.93      10.22      12.18
O       5.95       7.73      15.56
F       2.38       9.90      11.34
H       6.92       9.25      13.85
H       6.83      10.70      11.80
H       2.69       8.53      13.48
C       5.98       9.42      13.32
C       4.72      11.32      10.28
O       3.59      11.74       9.87
C       4.83       7.96      15.02
O       5.86      11.59       9.77
C       4.73      10.43      11.48
C       4.81       8.82      13.80
C       3.58       9.79      11.98
O       3.70       7.54      15.43
