16

C      13.51       3.26       5.96
C      10.70       2.05       7.86
C      14.40       2.61       6.80
C       9.84       2.71       7.00
C      12.05       2.26       7.48
C      12.17       3.08       6.33
O       7.79       2.02       7.94
S      13.58       1.75       8.07
H      10.35       1.46       8.70
S      10.64       3.59       5.73
O      16.45       3.20       5.81
O       7.80       3.39       6.11
C       8.37       2.71       7.03
F      13.87       4.00       4.89
C      15.86       2.56       6.75
O      16.43       1.85       7.66
