39

H       5.81      18.07      12.77
H       8.09      18.79      14.40
H       6.22      15.46      16.08
H       8.94      14.85      16.29
H       7.61      17.29      19.44
H       3.27      14.24      14.67
C       5.78      13.57      11.44
C       5.56      19.09      14.62
C       7.73      18.00      15.07
C       7.42      16.75      14.20
C       5.71      14.61      12.43
C       6.47      18.58      15.81
C       5.27      17.88      13.70
C       5.86      16.54      14.25
C       5.48      16.22      15.75
C       5.83      17.41      16.68
C       5.61      15.45      13.30
C       6.81      19.72      16.63
C       6.87      20.71      17.34
C       6.86      21.80      18.28
C       8.27      15.49      14.59
C       6.67      16.84      17.89
C       4.24      15.34      15.94
Br       4.05      20.18      15.17
Br       3.47      17.69      13.04
Br       6.62      20.44      13.53
Br       9.17      17.85      16.33
Br       7.88      17.10      12.28
Br       4.41      18.15      17.90
O       4.66      13.19      10.97
O       6.95      13.16      11.13
O       5.70      22.22      18.61
O       8.00      22.19      18.69
O       9.07      14.94      13.84
O       8.08      15.13      15.86
O       6.67      15.65      18.14
O       7.22      17.78      18.69
O       3.44      15.39      16.86
O       4.21      14.39      15.00
