17

S       7.42       4.98      18.18
S       7.34       4.24      22.30
O       7.23       7.47      21.22
C       7.47       1.48      22.31
C       7.30       6.41      20.38
O       7.37       1.65      23.57
C       7.48       2.80      20.11
O       7.59       0.37      21.69
C       7.34       6.53      18.99
O       7.34       7.58      16.91
C       7.45       2.70      21.49
C       7.42       4.15      19.70
O       7.36       8.85      18.81
C       7.34       5.05      20.78
H       7.21       7.15      22.14
H       7.54       1.93      19.46
C       7.34       7.74      18.18
