22

O       1.54       6.01      12.32
C       1.70       7.93      10.25
C       5.68      10.32       8.20
O       5.83      12.23       6.13
H       0.72       7.54      10.55
H       6.65      10.70       7.91
C       2.70       6.37      11.96
C       4.67      11.88       6.49
C       2.85       7.42      10.91
C       4.52      10.83       7.55
C       4.11       7.89      10.56
C       3.27      10.36       7.89
H       4.98       7.49      11.08
H       2.39      10.76       7.38
C       1.83       8.88       9.27
C       5.55       9.36       9.18
H       0.94       9.27       8.76
C       4.27       8.87       9.56
H       6.43       8.97       9.69
C       3.10       9.38       8.89
O       3.81       5.90      12.42
O       3.57      12.35       6.03
