53

C       9.84       8.12      22.28
C      13.14       5.65      16.81
C      10.61       9.60      20.53
Si       9.40       6.04      18.67
C      12.13       5.80      17.75
C      10.32       8.61      19.59
C       8.62       1.80      23.01
O       7.45       1.60      23.46
C       5.23       7.09      14.33
O       4.56       6.11      13.88
H       6.70       3.16      21.72
C       8.79       2.70      21.84
O       9.68       1.27      23.50
H       5.66       4.77      15.61
C       6.11       6.87      15.50
O       5.18       8.27      13.84
C       9.13       4.51      19.71
H       6.98       4.80      19.87
C       7.90       6.42      17.63
H       7.27       4.35      17.47
O      14.19       4.29      13.93
O       9.81      11.11      23.41
C       7.68       3.35      21.29
H      11.22       3.98      19.83
C       6.25       5.59      16.05
H       8.29       8.55      17.51
O      14.53       6.50      14.04
O      11.96      10.51      23.30
C       7.85       4.26      20.25
H      10.92       2.40      21.72
C       7.14       5.37      17.09
H       6.73       8.93      15.62
C      10.22       3.80      20.23
C       7.71       7.72      17.11
H       9.15       6.19      21.67
H       9.44       5.75      15.67
C      10.07       2.91      21.29
C       6.84       7.94      16.05
H       9.66       7.92      23.34
H      11.23       5.49      14.00
C      10.77       5.84      17.38
C       9.79       7.37      19.96
H      11.02      10.56      20.22
H      14.19       5.63      17.12
C      13.91       5.45      14.43
C      10.74      10.38      22.91
H      10.53       8.80      18.54
H      12.39       5.91      18.80
C      12.82       5.55      15.45
C      10.39       9.35      21.89
C      10.47       5.72      16.01
C       9.56       7.14      21.33
C      11.48       5.57      15.06
