20

C       9.58      12.19       4.93
C       7.79      10.91       3.16
C       8.45      12.92       4.44
C       8.94      10.20       3.62
C       7.59      12.24       3.57
C       9.79      10.87       4.50
H       6.71      12.75       3.18
H      10.67      10.35       4.89
H       8.75      14.64       5.50
H       7.27      14.59       4.58
H       8.53       8.41       2.73
H       9.90       8.40       3.79
N       8.21      14.24       4.74
N       9.26       8.92       3.21
C      10.56      12.77       5.87
C       6.78      10.32       2.25
O      11.53      12.02       6.27
O      10.39      13.98       6.25
O       5.79      11.04       1.90
O       6.97       9.10       1.86
