18

O      -2.73       5.52       5.96
O      -0.51       5.46       6.40
H       0.51       7.70       6.77
H      -3.59       7.70       5.48
H       0.51      10.22       6.66
H      -3.91      11.31       5.25
H      -4.68       9.74       5.08
O      -0.25      12.38       6.09
C      -1.39      11.84       5.87
C      -1.60       6.08       6.17
C      -1.50      10.37       5.95
C      -1.55       7.57       6.12
C      -2.71       9.67       5.62
C      -0.37       8.26       6.45
C      -2.69       8.26       5.72
C      -0.37       9.64       6.37
N      -3.84      10.29       5.21
O      -2.44      12.51       5.56
