16

O       5.92       9.21      10.82
C       6.67       6.00       7.08
H       4.83       8.24       8.88
O       7.65       4.54       5.51
C       5.68       7.63       8.56
C       7.89       6.12       7.77
H       8.74       5.51       7.44
C       8.01       6.99       8.84
H       8.95       7.09       9.38
H       4.62       6.66       6.94
C       5.56       6.76       7.49
C       7.01       8.69      10.39
O       8.17       8.92      10.86
C       6.56       5.06       5.94
C       6.90       7.75       9.24
O       5.40       4.83       5.46
