38

O       4.03       2.47      18.37
O       7.32      13.91       7.93
H       4.03      12.74       9.74
H       7.33       3.66      16.57
H       3.97      10.97      11.52
H       7.39       5.43      14.81
O       8.33       9.91      10.87
H       8.21      11.92       9.14
O       3.03       6.49      15.45
H       3.15       4.47      17.18
H       7.73       9.59      13.26
H       3.62       6.82      13.06
H       7.40       7.79      14.89
H       3.95       8.62      11.43
H       9.06      10.22      10.31
H       2.29       6.18      16.02
C       5.18       2.94      18.05
C       6.18      13.45       8.26
C       4.91      12.14       9.97
C       6.44       4.26      16.34
C       4.88      11.15      10.94
C       6.48       5.26      15.38
C       6.00      10.36      11.26
C       5.35       6.05      15.07
C       7.21      10.67      10.59
C       4.14       5.74      15.73
C       7.27      11.69       9.65
C       4.09       4.71      16.67
C       6.12      12.41       9.31
C       5.24       3.98      17.00
C       6.83       8.98      13.21
C       4.52       7.43      13.12
C       6.64       7.96      14.13
C       4.71       8.45      12.20
C       5.49       7.16      14.10
C       5.87       9.25      12.22
O       6.28       2.58      18.57
O       5.07      13.80       7.74
