16

C       5.63       7.00      16.38
C       5.86       7.10      14.91
C       5.02       7.86      14.08
C       5.29       7.95      12.72
C       6.97       6.44      14.36
C       7.23       6.53      13.00
C       6.67       7.34      10.70
C       6.39       7.28      12.17
H       4.16       8.37      14.53
O       4.71       7.72      16.91
H       7.62       5.87      15.02
O       6.40       6.20      17.01
H       4.64       8.54      12.06
H       8.09       6.02      12.56
O       6.04       8.21      10.02
O       7.52       6.50      10.26
