24

O      20.26      27.18      14.64
O      21.53      28.80      15.46
O      25.63      23.22      13.82
O      26.80      24.91      12.99
O      23.81      27.55      17.52
O      21.94      26.39      17.39
O      24.94      26.73      10.94
C      22.07      27.35      12.06
O      24.38      24.59      11.07
C      25.26      24.99      16.39
C      22.89      26.74      13.18
C      24.44      25.60      15.28
C      22.56      26.95      14.52
C      24.74      25.35      13.93
C      23.35      26.44      15.55
C      24.01      25.95      12.91
N      21.34      27.72      14.90
N      25.83      24.41      13.56
N      23.01      26.82      16.95
N      24.47      25.74      11.51
O      22.08      26.73      10.96
O      21.44      28.41      12.35
O      26.46      24.72      16.11
O      24.66      24.83      17.50
