36

H       8.39       1.51       7.61
H       5.76      -2.35       9.51
C       6.27       5.57       8.64
C       7.88      -6.41       8.48
C       7.76      -4.92       8.39
C       6.39       4.07       8.73
C       6.72      -4.23       9.05
C       7.43       3.38       8.07
C       6.59      -2.85       9.01
C       7.56       2.01       8.11
C       7.53      -2.10       8.30
C       6.62       1.26       8.82
C       8.59      -2.75       7.64
C       5.56       1.91       9.48
C       8.69      -4.14       7.70
C       5.45       3.30       9.42
N       7.39      -0.71       8.10
N       6.76      -0.13       9.02
N       9.58      -1.94       6.91
N       4.57       1.10      10.21
N       9.86      -4.79       7.02
N       4.29       3.94      10.10
O       5.08       6.01       8.55
O       9.07      -6.85       8.57
O       7.34       6.25       8.65
O       6.81      -7.09       8.47
O       9.84      -2.29       5.75
O      10.05      -0.97       7.52
O       4.31       1.44      11.36
O       4.10       0.13       9.60
O      10.96      -4.53       7.50
O       9.61      -5.49       6.05
O       3.19       3.69       9.62
O       4.54       4.65      11.07
F       8.32       4.08       7.34
F       5.83      -4.92       9.78
