16

N      11.49      12.10       4.04
C      11.67      12.61       2.69
C      10.46      11.36       4.56
C      10.43      13.32       2.15
N      12.52      12.25       4.90
C      10.84      11.01       5.84
H      12.52      13.29       2.72
H      11.90      11.78       2.00
H       9.57      11.15       3.98
C      12.12      11.58       6.00
C      13.00      11.38       7.18
H      10.28      10.43       6.56
O       9.35      12.65       2.16
O      10.60      14.51       1.72
O      14.13      11.96       7.22
O      12.53      10.59       8.07
