30

H       8.65      19.48       2.53
H       7.52      18.39       3.29
H       2.36      13.20      -2.59
H       3.34      14.41      -3.39
C       9.00      20.04       0.01
C       7.97      18.98       0.04
C       2.93      13.84      -0.13
C       7.52      18.37       1.24
C       6.51      17.38       1.16
C       3.49      14.35      -1.35
C       4.45      15.37      -1.27
C       1.90      12.77      -0.09
C       4.33      15.41       1.13
C       7.40      18.55      -1.17
C       6.41      17.58      -1.23
C       5.94      16.97      -0.04
C       4.90      15.91      -0.06
C       3.38      14.40       1.08
H       6.19      16.92       2.10
H       4.87      15.72      -2.21
H       2.92      14.02       1.99
H       4.62      15.81       2.10
H       7.77      19.01      -2.09
H       6.01      17.30      -2.20
N       8.03      18.67       2.47
N       3.13      13.86      -2.57
O       9.59      20.34       1.12
O       9.25      20.63      -1.10
O       1.38      12.47       1.03
O       1.59      12.21      -1.21
