46

H      -2.30      14.84      18.34
H      -0.99      15.10      19.48
H       0.62      15.37      17.56
H      -0.66      15.00      16.42
H      -1.97      16.99      17.29
H      -0.64      17.37      18.37
H       0.86      17.70      16.34
H      -0.51      17.31      15.30
H      -1.76      19.32      16.21
H      -0.25      19.75      15.42
H       0.85      19.66      17.76
H      -0.79      19.61      18.44
O      -0.06      12.64      17.90
O      -1.39      22.01      17.25
H       3.61      25.59      18.70
H       3.18      23.20      18.18
H      -0.42      26.51      18.50
H      -1.03      24.15      17.97
C      -1.75       8.89      18.89
C      -1.38      10.22      18.74
C      -2.05      11.20      19.50
C      -3.03      10.76      20.41
C      -3.33       9.42      20.50
C      -0.95      13.21      18.53
C      -1.22      14.70      18.48
C      -0.46      15.46      17.40
C      -0.88      16.93      17.39
C      -0.24      17.76      16.27
C      -0.67      19.23      16.29
C      -0.19      19.93      17.57
C      -0.34      21.44      17.52
C       1.03      23.46      18.05
C       0.01      24.43      18.13
C       0.35      25.74      18.42
C       2.59      25.23      18.53
C       2.35      23.90      18.24
N      -2.71       8.48      19.75
N      -1.85      12.55      19.35
N       0.84      22.11      17.83
N       1.61      26.16      18.62
H      -2.55      13.15      19.83
H       1.67      21.52      17.93
H      -1.28       8.11      18.30
H      -0.63      10.50      18.01
H      -3.61      11.48      21.00
H      -4.11       9.07      21.17
