34

H       5.64       4.36       0.99
H      12.02       7.13      -0.87
H       8.26       7.22       3.22
H       8.32       6.58      -3.34
H       4.32       4.72      -1.10
H      12.55       8.53       1.12
C       9.60       8.66       4.84
C       6.49       6.25      -5.05
C       6.45       4.94       0.54
C      11.03       6.95      -0.46
C       6.33       5.95      -3.59
C      10.08       8.26       3.48
C       5.21       5.09      -1.60
C      11.62       8.20       1.60
C       5.18       5.43      -2.95
C      11.32       8.61       2.89
C       7.48       6.12      -2.83
C       9.23       7.43       2.77
C       7.57       5.78      -1.47
C       9.53       6.92       1.49
C       6.40       5.27      -0.84
C      10.74       7.37       0.88
C       8.75       6.06      -0.68
C       8.60       6.11       0.73
C       7.51       5.36       1.30
C      10.06       6.33      -1.21
I      12.74       9.88       3.81
I       3.29       5.27      -3.89
I       7.67       4.52       3.24
I      10.72       5.42      -3.02
O      10.48       8.85       5.75
O       5.73       5.64      -5.87
O       8.34       8.73       5.00
O       7.44       7.04      -5.36
