20

C      -8.12      10.14      13.42
C      -8.99       7.52      19.16
H      -8.28      13.01      12.77
H      -9.51       4.74      20.05
C      -8.17       9.60      14.52
C      -8.74       8.00      18.05
C      -8.31       9.03      15.73
C      -8.50       8.53      16.84
H      -8.39       9.28      10.57
C      -8.42      10.31      10.91
C      -9.54       7.62      21.63
C      -8.23      10.83      12.20
C      -9.33       6.96      20.40
H      -9.45       8.68      21.86
N      -8.64      12.49      10.74
N      -9.90       5.48      22.00
C      -8.37      12.22      12.03
C      -9.57       5.61      20.70
N      -8.68      11.32      10.05
N      -9.88       6.73      22.57
