14

O       2.57       0.91      15.37
C       4.84       2.84      13.37
C       3.72       2.24      13.84
C       4.90       3.73      12.22
C       3.82       4.26      11.60
H       5.77       2.62      13.89
H       2.75       2.37      13.36
H       5.89       4.00      11.84
H       2.81       4.05      11.93
C       3.71       1.38      15.03
O       5.05       5.52      10.00
O       2.79       5.44       9.89
C       3.91       5.14      10.41
O       4.81       1.17      15.64
