23

N      -0.18       6.24       9.88
H      -8.48       6.42      11.93
H      -0.79       6.47      11.93
N      -6.94       6.62      10.41
N      -2.33       6.27      10.40
H      -8.82       6.90       7.75
H      -0.45       5.98       7.75
N      -4.63       6.44      10.40
H      -6.11       6.86       8.43
N      -5.84       6.53      12.47
N      -3.43       6.36      12.47
H      -3.16       6.03       8.43
C      -8.23       6.55      10.88
O      -4.63       6.44      14.40
C      -1.04       6.34      10.88
C      -8.34       6.80       8.72
C      -0.93       6.09       8.72
C      -7.01       6.77       9.03
C      -2.26       6.11       9.02
C      -5.74       6.52      11.15
C      -3.53       6.36      11.15
C      -4.63       6.44      13.15
N      -9.08       6.65       9.88
