24

O       7.81       7.75      14.17
O       5.50      11.14      15.71
O       9.26       8.49      16.33
O       4.61      12.59      14.21
O      10.67       6.74      16.06
H       3.87      10.16      13.35
H       5.32      10.81      12.53
H       8.36       5.99      12.17
H       5.25       7.47       9.58
H       7.12       5.87      10.05
H       4.52       9.03      11.37
H       9.73       7.21      13.58
H       8.81       5.95      14.46
C       6.03       8.41      12.77
C       7.15       7.58      12.98
C       4.94      10.40      13.47
C       7.52       6.66      12.01
C       5.05      11.45      14.57
C       9.68       7.47      15.71
C       5.78       7.49      10.54
C       6.82       6.60      10.79
C       5.37       8.38      11.54
C       9.03       7.02      14.40
O       5.68       9.22      13.82
