22

H       3.56      12.35       5.16
C       5.48       8.20       5.81
H       9.55      12.36       8.31
C       4.42      10.40       5.55
C       5.52       9.69       6.01
C       6.63      10.38       6.59
C       8.74      10.40       7.82
H       7.74      13.58       7.21
C       7.72       9.71       7.21
O       4.34      14.56       5.74
O       6.61      14.60       5.68
H       3.56       9.85       5.16
H       7.74       8.62       7.21
H       9.55       9.85       8.31
O       4.34       7.64       5.74
O       6.61       7.61       5.68
C       5.48      14.01       5.81
C       5.52      12.52       6.01
C       4.42      11.80       5.55
C       6.63      11.83       6.59
C       7.72      12.50       7.21
C       8.74      11.81       7.82
