34

H       1.52      10.10       9.91
H      -2.09      10.93       7.05
H       1.76      12.22       8.48
H       1.00      14.56       8.42
C      -4.92      19.49       8.64
C       1.13       9.55       9.06
H      -3.08      19.25      11.34
H      -5.34      19.39       7.64
H      -0.56       8.72       6.37
H      -0.33      15.86       9.68
N      -4.80      20.28      10.72
H      -1.51      17.92      10.31
N      -5.50      20.31       9.55
N       1.36       8.22       8.92
H      -4.11      17.46       6.91
N       0.69       7.79       7.81
H      -2.91      15.42       6.26
H      -2.85      13.27       7.00
C       0.04       8.84       7.27
C       0.31      10.01       8.02
C      -1.15      16.22       9.05
C      -1.82      17.38       9.42
C      -2.95      17.82       8.70
C      -3.28      17.12       7.52
C      -2.60      15.96       7.16
C      -1.56      15.45       7.95
C      -1.83      13.05       7.30
C      -1.40      11.72       7.34
C      -0.12      11.39       7.82
C       0.74      12.45       8.17
C       0.31      13.77       8.14
C      -1.00      14.10       7.75
C      -3.78      19.44      10.53
C      -3.80      18.89       9.22
