20

H      17.45      11.62      12.39
H      16.51      11.65      10.09
H      16.03       7.36      10.43
H      17.07       7.51      12.68
H      14.82      11.48       8.71
H      13.70      11.26       6.49
H      14.77       7.29       6.17
C      17.13      10.70      11.90
H      16.01       7.34       8.33
C      16.59      10.70      10.63
C      16.17       9.49      10.05
C      15.52       9.43       8.73
C      16.35       8.33      10.81
C      16.91       8.40      12.07
C      14.86      10.54       8.18
C      14.22      10.42       6.95
C      14.83       8.20       6.77
C      15.50       8.24       7.98
N      17.29       9.57      12.62
N      14.19       9.27       6.26
