10

C       7.37       8.63      17.21
C       7.31       7.81      18.28
O       8.62      10.64      14.72
O       6.06       5.70      20.70
O       8.32       5.89      20.92
O       6.34      10.54      14.59
C       7.21       6.15      20.37
C       7.47      10.25      15.10
C       7.43       9.37      16.24
C       7.25       7.06      19.25
