22

H       9.76       9.31      10.05
H      11.34      10.67      11.37
H       9.36      14.28      10.11
H      11.13      13.16      11.41
C       7.74       8.75       8.47
C       7.55      14.57       8.28
C       7.71      10.25       8.51
C       8.67      11.01       9.25
C       6.72      10.90       7.82
C       9.69      10.40      10.04
C      10.57      11.16      10.78
C       7.58      13.08       8.43
C       6.66      12.31       7.77
C       8.59      12.45       9.23
C       9.48      13.19      10.05
C      10.45      12.57      10.80
O       6.64       8.16       8.72
O       6.44      15.16       8.49
O       8.64      15.14       7.97
O       8.84       8.19       8.17
F       5.70      12.86       6.99
F       5.80      10.23       7.09
