28

H       5.82       8.88      15.09
H       5.35       8.48      17.53
H       5.80       6.17      21.09
H       5.26       5.72      23.51
H       2.37       6.54      14.04
H       1.78       7.56      20.45
H       1.82       6.27      16.49
H       1.28       7.21      22.89
N       4.19       7.06      19.29
N       3.22       7.06      18.48
O       3.86       7.08      12.18
O       1.83       6.72      25.20
O       5.29       8.79      12.66
O       3.78       5.58      25.48
C       4.45       7.88      12.98
C       2.93       6.23      24.78
C       3.24       6.43      23.34
C       2.25       6.96      22.48
C       2.53       7.16      21.14
C       3.81       6.86      20.64
C       4.81       6.37      21.50
C       4.51       6.13      22.83
C       4.71       8.08      16.76
C       4.96       8.29      15.41
C       3.58       7.33      17.14
C       4.13       7.72      14.43
C       3.00       6.98      14.82
C       2.71       6.82      16.16
