18

O      18.95       4.05      30.93
S      23.43       2.17      27.69
C      24.41      -0.04      26.37
S      19.83       0.65      29.19
C      18.86       2.84      30.53
O      25.36       0.79      26.10
O      21.84      -1.41      27.34
O      24.34      -1.26      26.03
C      22.15      -0.12      27.62
O      21.43       4.22      29.56
C      21.12       2.93      29.28
C      23.32       0.50      27.18
C      19.95       2.31      29.72
C      21.92       2.04      28.51
O      17.90       2.02      30.78
H      20.97      -1.62      27.73
H      22.30       4.43      29.16
C      21.35       0.77      28.38
