16

C      16.54      13.51      26.46
C      16.47       7.25      30.63
C      17.60      11.59      27.82
C      15.41       9.17      29.27
C      16.54      12.29      27.27
C      16.48       8.47      29.82
C      15.81      10.30      28.54
C      17.21      10.45      28.55
F      18.89      11.95      27.69
F      14.12       8.82      29.41
O      17.67      14.07      26.26
O      15.39      13.89      26.03
O      17.62       6.80      30.96
O      15.34       6.75      30.92
S      15.01      11.54      27.65
S      18.01       9.21      29.43
