26

C       2.70      -0.51      11.88
O       3.32       1.54      16.42
C      -1.71       2.15      14.81
O      -0.18       3.66      10.26
H       4.44       0.11      14.73
H      -1.96       3.99      11.96
H       0.84       0.44      11.35
H      -0.00       0.95      15.34
H       4.52      -1.35      12.68
C       1.59       1.20      13.23
C       0.32       1.96      13.46
H      -3.29       3.37      14.01
H       2.69      -1.17      11.00
C       2.63       1.09      14.17
H      -2.28       1.84      15.69
C      -0.26       2.84      12.52
C       0.46       3.30      11.28
C       3.68       0.18      13.96
C      -1.55       3.34      12.73
C       1.65       0.39      12.08
C      -0.42       1.64      14.61
O       2.12       3.10      15.31
C       3.72      -0.63      12.83
C      -2.28       3.00      13.86
C       2.71       1.94      15.41
O       1.76       3.32      11.38
