26

O      15.54      -3.59       6.58
O      16.87      -4.09       4.80
H      14.30      -2.11       1.33
H      13.34      -3.57       1.46
O      11.71      -1.70       0.85
O      10.86      -0.75       2.73
H      14.97      -4.54       2.82
H      13.17      -3.31       5.91
H      15.96      -3.09       2.65
H      12.83      -0.41       4.33
H      13.98      -0.21       3.00
H      15.68      -1.18       4.26
H      11.45      -2.55       4.53
H      11.74      -3.87       3.38
H      14.57      -1.31       5.63
C      12.23      -3.05       3.94
C      12.84      -2.06       2.92
C      14.72      -3.11       4.41
C      14.69      -1.56       4.57
C      11.71      -1.45       2.09
C      13.33      -3.59       4.87
C      13.86      -2.81       2.05
C      15.80      -3.65       5.34
C      14.96      -3.45       2.94
C      13.57      -0.94       3.71
I      13.24      -5.79       5.01
