36

N       7.05      12.49       3.24
N       6.66       9.63      12.30
N      14.90       8.61       7.67
N       8.18      10.31       7.59
N      10.03       9.22       8.59
N      10.25      10.17       6.42
H       5.37      12.64       4.44
H       6.42      11.45       6.39
H      10.02      11.07       4.01
H       8.81      12.25       2.16
H       8.52       9.54      13.23
H       9.80       9.44      11.10
C       6.98      11.62       5.47
H       6.03       9.69       8.98
C       8.31      11.19       5.35
H      12.08       8.34       9.51
H       4.89       9.67      11.21
C       8.99      11.41       4.15
C       6.39      12.27       4.40
H      14.56       7.87       9.57
C       8.32      12.06       3.12
C       8.00       9.55      12.27
H      15.08       9.40       5.75
H      12.64       9.90       5.51
C       8.71       9.50      11.08
C      14.08       8.31       8.69
C      12.72       8.58       8.65
C      12.17       9.17       7.51
C      13.02       9.46       6.43
C      14.38       9.17       6.56
C       8.01       9.57       9.87
C       8.95      10.51       6.50
C       8.77       9.68       8.61
C      10.73       9.53       7.49
C       6.62       9.64       9.90
C       5.97       9.64      11.14
