30

H       6.73       5.48       2.09
H       1.45      10.28      -0.99
H       4.77      12.23       0.93
H       6.08      10.10       0.78
H       6.27       5.17      -2.17
H       5.16       7.41      -2.20
N       5.39       7.75       2.37
N       2.52       7.86      -1.05
O       8.05       3.67       0.98
O       1.32      12.78      -0.85
O       7.00       3.06      -0.94
O       2.54      13.47       0.94
H       5.09       8.72       2.34
H       5.95       7.49       3.17
H       1.70       7.97      -1.64
H       3.08       7.04      -1.24
C       7.25       3.88       0.01
C       2.23      12.62       0.03
C       6.55       5.20      -0.03
C       3.02      11.36      -0.02
C       6.37       5.91       1.15
C       5.68       7.13       1.16
C       2.46      10.22      -0.59
C       3.15       9.00      -0.61
C       4.33      11.33       0.50
C       5.04      10.13       0.43
C       6.10       5.72      -1.25
C       5.47       6.96      -1.25
C       5.23       7.68      -0.07
C       4.48       8.96      -0.09
