32

H       1.96      15.36       4.24
H       3.75      11.53       3.26
H       5.70      16.60       6.15
H       7.31      12.61       5.58
O      10.89      14.83       8.00
O      10.04      16.91       8.31
O      -0.65      11.17       1.23
O      -1.56      13.19       1.69
H      -0.99      14.50       2.54
H       0.84      10.52       1.57
H       8.60      17.61       7.86
O      -0.26      14.92       3.07
H      10.27      13.47       7.26
O       1.74      10.62       1.98
O       7.72      17.52       7.41
O       9.52      13.04       6.76
C       9.94      15.70       7.85
C      -0.58      12.35       1.76
C       0.63      12.73       2.46
C       0.75      14.02       3.10
C       1.91      14.38       3.77
C       2.99      13.49       3.83
C       2.92      12.22       3.22
C       1.76      11.84       2.55
C       4.17      13.86       4.51
C       5.19      14.19       5.10
C       6.37      14.56       5.78
C       6.50      15.87       6.28
C       7.66      16.25       6.95
C       8.73      15.32       7.15
C       8.57      13.99       6.63
C       7.40      13.62       5.96
