14

F       0.27       1.39       9.62
F      -2.38       1.37       9.47
N      -2.47       4.64       8.75
N       0.41       4.67       8.91
Cl       0.36       7.21       9.67
Cl      -2.42       1.45       6.90
C      -1.70       3.54       8.61
C      -1.76       5.72       9.04
C      -0.33       5.76       9.16
C      -0.32       3.56       8.69
C      -0.18       2.05       8.52
C      -1.80       2.03       8.41
F      -2.42       6.85       9.22
F       0.49       1.60       7.44
