26

C      22.49      13.94      18.59
C      21.47      12.77      18.61
C      20.55      12.88      19.86
C      19.82      14.24      19.79
C      20.85      15.40      19.79
C      22.28      14.84      19.84
C      22.45      13.98      21.10
C      21.42      12.83      21.12
O      24.35      15.80      20.53
O      23.10      16.95      19.02
H      23.52      13.55      18.59
H      22.36      14.55      17.69
H      20.84      12.78      17.71
H      21.99      11.80      18.63
H      19.19      14.26      18.89
O      19.63      10.83      20.71
H      20.73      16.03      18.90
O      18.65      11.80      18.90
H      19.14      14.32      20.66
H      20.69      16.06      20.66
H      20.77      12.89      22.00
H      21.92      11.85      21.17
H      23.48      13.59      21.13
H      22.34      14.62      21.99
C      23.32      15.96      19.80
C      19.53      11.75      19.83
