20

H       6.58      11.74       5.96
H       2.26      14.07       5.22
C       4.24      15.82       5.67
C       4.60       9.99       5.54
C       4.34      14.33       5.60
C       4.49      11.49       5.60
C       5.55      13.64       5.78
C       3.29      12.17       5.41
C       5.64      12.26       5.80
C       3.20      13.55       5.39
N       6.81      14.39       5.84
N       2.02      11.44       5.32
O       5.33      16.44       5.92
O       5.73       9.48       5.76
O       3.53       9.37       5.24
O       3.09      16.33       5.52
O       7.28      14.72       4.74
O       7.34      14.58       6.94
O       1.46      11.35       4.22
O       1.56      11.07       6.41
