15

H       4.48      11.35      13.61
C       4.28      11.31      12.53
O       2.16      12.44      13.94
H       5.25      11.20      12.03
H       3.23       9.95      11.17
H       4.32      13.46      12.35
C       3.64      12.63      12.08
O       1.41      13.49      12.07
H       2.37      10.31      12.67
C       3.80       8.80      12.87
H       3.50      12.67      11.00
C       2.29      12.89      12.75
O       4.31       8.83      14.04
C       3.37      10.12      12.25
O       3.56       7.76      12.18
