28

O      -9.86      14.28      11.68
O     -11.28      13.43      10.12
C     -10.57      13.35      11.18
O     -10.87       2.22      18.50
C     -10.57       2.20      17.26
O     -10.28       1.17      16.58
C     -10.57       3.52      16.54
C      -9.76       4.58      17.00
C      -9.77       5.81      16.34
C     -10.57       6.00      15.19
C     -11.38       4.93      14.73
C     -11.39       3.71      15.41
C     -10.57       7.24      14.51
C     -10.57       8.31      13.93
C     -10.57       9.55      13.25
C     -10.92      10.74      13.93
C     -10.92      11.97      13.26
C     -10.57      12.03      11.90
C     -10.22      10.85      11.21
C     -10.22       9.62      11.88
Br      -8.59       4.31      18.47
Br     -12.55       2.33      14.84
Br     -12.43       5.21      13.19
Br      -8.71       7.25      16.94
Br     -11.36      10.62      15.76
Br      -9.78       8.01      11.00
Br      -9.66      10.92       9.40
Br     -11.47      13.53      14.18
