38

H       4.05       6.38      15.02
H       4.03       8.47      14.69
C       5.43       7.33      10.59
C       5.60       7.45      21.42
C       5.11       6.14      15.21
C       5.03       8.58      15.14
C       4.83       8.50      16.68
C       5.22       6.01      16.74
C       5.66       7.44      19.97
C       5.92       7.38      14.66
C       5.75       7.38      17.32
C       7.26       7.58      16.84
C       7.35       7.57      15.26
C       5.70       7.41      18.76
C       5.86       7.35      13.21
C       5.61       7.33      12.03
N       4.98       9.90      17.43
N       6.09       4.77      17.22
N       8.38       6.49      14.79
N       8.04       8.86      14.58
O       5.38       6.20      10.02
O       5.37       8.48      10.04
O       5.55       6.30      21.96
O       5.62       8.59      21.98
O       4.06      10.18      18.18
O       5.98      10.55      17.18
O       5.75       4.30      18.30
O       6.98       4.38      16.48
O       7.98       5.62      14.03
O       9.52       6.68      15.20
O       8.24       8.69      13.38
O       8.32       9.84      15.25
F       7.99       6.55      17.37
F       7.77       8.70      17.40
F       3.99       5.73      17.26
F       3.52       8.16      16.89
F       5.54       9.79      14.70
F       5.35       4.97      14.53
