20

H      -0.32       0.83       5.30
H       0.26       5.06       5.90
H      -0.50       4.83       8.27
H      -1.08       0.60       7.67
C      -2.57       3.00      11.74
C      -1.86       2.68      10.54
C      -0.78       1.57       7.27
C      -0.36       1.70       5.96
C      -0.03       4.09       6.29
C      -0.45       3.96       7.61
C      -0.85       2.70       8.11
C       0.01       2.96       5.45
C       0.39       3.09       4.10
C      -1.37       2.63       9.42
C       0.71       3.17       2.92
C       1.22       3.04       1.59
O       0.88       1.99       0.95
O       2.01       3.96       1.16
O      -2.40       4.16      12.21
O      -3.37       2.10      12.21
