17

C      18.54       8.24      25.73
C      18.53       9.46      29.14
C      18.54       6.93      26.20
C      18.53      10.77      28.67
C      18.54       8.54      28.07
C      18.54       9.16      26.81
H      18.53       9.23      30.20
C      18.53       5.68      25.43
O      18.56       5.78      24.16
O      18.50       4.60      26.12
O      18.52      13.10      28.80
O      18.52      11.87      30.73
O      18.55       8.57      24.41
S      18.54       6.82      27.94
S      18.53      10.88      26.93
C      18.52      12.00      29.46
H      18.53       9.54      24.33
