12

O       9.32       4.09       5.05
C      16.57       6.90      11.08
C       9.24       3.90       6.31
O       8.30       3.35       6.96
C      10.37       4.37       7.07
C      14.47       6.04       9.69
C      11.35       4.77       7.70
C      13.40       5.60       9.01
C      12.42       5.20       8.38
C      15.45       6.44      10.31
O      17.52       7.45      10.42
O      16.50       6.71      12.34
