34

H       6.06       2.29       9.16
H       6.28      -2.68       9.13
H       8.25      -2.12       4.81
H       8.58       1.39       4.55
H       5.28       2.38      11.41
H       3.59      -2.71       9.30
C       8.09       2.81       7.64
C       8.08      -2.99       7.32
C       8.08       1.31       7.60
C       7.10       0.57       8.35
C       8.99       0.65       6.78
C       6.12       1.20       9.16
C       5.20       0.47       9.88
C       8.05      -1.50       7.42
C       8.94      -0.76       6.65
C       7.12      -0.86       8.29
C       6.20      -1.60       9.09
C       5.25      -0.96       9.86
C       9.85      -1.44       5.66
C       9.96       1.42       5.91
C       4.05       1.13      10.57
C       4.38      -1.74      10.80
O       9.20       3.38       7.89
O       9.21      -3.54       7.56
O       7.01      -3.58       7.02
O       7.00       3.39       7.37
O       9.22      -2.16       4.69
O      11.06      -1.35       5.67
O       9.51       1.70       4.66
O      11.07       1.78       6.25
O       4.32       2.23      11.33
O       2.90       0.74      10.44
O       3.58      -2.70      10.28
O       4.44      -1.57      12.01
