28

C      15.06      10.47      11.03
C      18.76       6.31       7.01
H      14.30      11.05      11.57
H      15.59       9.84      11.75
H      15.80      11.16      10.61
N      12.43       8.77       8.92
N      16.58       9.13       9.00
N      17.24       8.17       8.53
H      19.52       5.59       6.66
H      18.01       5.78       7.61
H      18.23       6.69       6.12
H      21.21      10.30       9.61
N      21.40       8.58       8.45
H      12.62       7.51       7.27
H      18.71      10.13       9.75
H      15.13       7.65       7.25
H      12.38      10.04      10.55
H      21.43       6.88       7.28
C      13.16       8.10       8.01
C      20.67       9.50       9.12
C      14.55       8.17       8.02
C      19.29       9.41       9.18
C      15.18       8.94       8.99
C      18.64       8.37       8.51
C      14.42       9.65       9.95
C      19.39       7.42       7.78
C      13.04       9.52       9.86
C      20.78       7.59       7.80
