28

C       1.99      27.32      24.17
F       2.02      16.48      20.66
C       1.99      16.32      17.82
F       1.98      21.20      17.89
F       1.99      18.82      22.01
F       1.98      22.43      24.09
F       1.99      24.81      19.98
F       2.02      27.15      21.33
F       1.96      24.77      25.45
F       1.96      18.86      16.54
C       1.99      17.61      18.57
C       2.02      17.63      19.97
C       2.00      18.84      20.66
C       1.99      20.07      19.99
C       1.97      20.04      18.58
C       1.96      18.84      17.88
C       1.99      21.29      20.69
C       1.99      22.34      21.30
C       1.99      23.56      22.00
C       1.97      23.59      23.41
C       1.96      24.80      24.10
C       1.99      26.02      23.42
C       2.01      26.00      22.02
C       2.00      24.80      21.32
O       1.05      27.50      25.00
O       2.93      28.13      23.91
O       1.05      16.13      16.98
O       2.93      15.50      18.08
