26

C      11.67      11.45      21.95
C       2.58      15.72      21.95
O      12.70      12.12      22.30
C      10.35      12.11      21.79
C       3.90      15.06      21.79
O       1.55      15.06      22.30
C       9.25      11.36      21.37
C       5.00      15.82      21.37
C       7.99      11.94      21.31
C       6.26      15.24      21.31
C       7.80      13.29      21.65
C       6.45      13.89      21.65
C       8.92      14.05      22.03
C       5.33      13.13      22.03
C      10.19      13.47      22.11
C       4.06      13.70      22.11
H       9.41      10.32      21.10
H       4.84      16.86      21.10
O      11.76      10.18      21.78
H       7.14      11.34      20.98
H       7.11      15.83      20.98
O       2.49      16.99      21.78
H       8.79      15.09      22.33
H       5.46      12.08      22.33
H      11.05      14.05      22.43
H       3.20      13.13      22.43
