22

N       6.20      11.04       0.29
H       2.04      11.54       2.52
F       3.18      16.53       6.41
H       0.65      13.01       3.88
F       3.07       9.85       1.16
F      -0.25      13.20       6.27
C       2.15      15.70       6.63
F       3.97      14.17       1.92
C       4.17      10.60       0.94
C       0.60      14.20       6.57
F       3.51      14.61       4.41
F       6.41      13.26       0.82
C       4.34      11.97       1.23
C       1.63      14.72       5.77
C       2.39      12.56       2.67
C       5.66      12.15       0.78
C       1.68      13.32       3.68
C       3.49      12.89       1.96
C       2.20      14.22       4.54
N       1.52      15.74       7.81
N       5.24      10.04       0.39
N       0.52      14.79       7.77
