26

Br       9.72      18.95       4.66
Br       8.92      19.05      -4.66
O      11.72      16.84       4.86
H       8.75      19.72       2.16
O       6.97      21.22      -4.87
H       9.89      18.29      -2.17
O       5.83      22.26      -3.22
H      12.14      16.31       1.03
H      10.92      17.41      -0.78
O      12.87      15.82       3.21
H       6.54      21.73      -1.05
H       7.76      20.63       0.77
C      11.97      16.62       3.63
C       6.70      21.42      -3.64
C      11.17      17.36       2.62
C       7.49      20.65      -2.63
C      10.19      18.34       2.91
C       9.49      18.97       1.88
C       8.45      19.67      -2.91
C       9.16      19.04      -1.89
C       7.27      20.96      -1.27
C       7.97      20.34      -0.25
C      11.39      17.07       1.26
C      10.69      17.69       0.24
C       9.71      18.67       0.53
C       8.94      19.35      -0.54
