14

O       5.26      10.09      17.03
C       4.32       6.79      11.36
H       6.20       8.96      15.05
C       5.25       8.69      14.59
H       3.13       8.84      14.85
C       4.12       9.06      15.23
C       5.30       7.96      13.34
H       6.29       7.74      12.92
C       4.23       7.52      12.64
H       3.21       7.69      12.99
C       4.13       9.79      16.52
O       3.20       6.49      10.83
O       5.48       6.53      10.89
O       2.98      10.06      17.01
