18

C       5.08      14.20       6.15
C       4.58      11.08       2.80
C       5.48      12.68       4.23
C       4.18      12.60       4.72
O       5.50       9.77       1.13
O       3.27       9.59       1.55
H       2.03      13.16       6.03
H       7.63      12.13       2.93
O       2.77      13.58       6.50
O       6.89      11.70       2.45
S       6.43      13.84       5.10
C       5.22      15.21       7.20
S       3.23      11.45       3.85
C       4.44      10.07       1.76
O       6.39      15.69       7.40
O       4.16      15.52       7.82
C       3.94      13.47       5.82
C       5.73      11.81       3.13
