20

C      30.39      19.49      26.78
C      30.27      18.37      30.24
C      30.33      20.82      27.23
C      30.34      17.03      29.80
C      30.27      19.25      29.13
C      30.36      18.60      27.90
S      30.24      20.97      28.97
S      30.43      16.88      28.06
H      30.24      18.17      25.23
H      30.40      19.85      24.80
H      29.94      19.69      31.78
H      30.12      18.01      32.23
N      30.52      19.11      25.48
N      30.24      18.76      31.55
C      30.32      22.01      26.43
C      30.33      15.84      30.61
O      30.18      23.13      27.03
O      30.44      21.86      25.15
O      30.28      15.99      31.89
O      30.38      14.72      29.99
