18

C       9.89       7.15       8.71
C      12.06       7.90       8.63
C      12.26       6.56       9.00
S      13.57       8.74       8.52
S      10.77       5.71       9.12
N      14.04       4.95       9.68
O      16.48       8.55       9.04
O      16.54       6.33       8.54
H      10.30       9.21       8.17
O       7.86       5.99       8.91
O       7.82       8.21       8.38
O      13.31       3.99       9.35
O      15.05       4.86      10.39
C      15.95       7.41       8.86
C       8.41       7.11       8.66
C      13.62       6.25       9.21
C      10.70       8.24       8.47
C      14.47       7.33       8.96
