10

C       6.88       9.30       8.33
C       7.88      11.46       7.69
H       8.32       9.51       6.77
H       6.30       9.83       9.10
O       5.82       7.42       7.40
O       8.73      12.01       6.90
O       7.39       7.13       9.04
C       6.68       7.83       8.24
O       7.18      12.04       8.58
C       7.72       9.99       7.55
