28

H      14.07       3.33       7.77
C      10.82       3.17       7.67
C      11.48       7.17       1.31
C      11.97       3.82       7.15
C       9.98       6.79       2.87
C      11.36       6.66       2.61
H      11.21       4.69       5.36
H      12.53       5.03       3.50
H       9.44       6.47       3.76
I       8.84       3.50       7.07
H      13.61       7.44       7.24
H      13.62       5.81       7.97
N      12.47       2.29       8.72
H      14.81       6.26       6.72
I      13.17       7.28       0.11
H      13.37       8.66       5.21
H      12.05       8.69       4.02
H      11.70       8.47       5.76
C      13.00       3.20       7.87
C      13.76       6.37       7.03
N      11.10       2.28       8.62
C      12.39       8.21       4.95
N      10.27       7.60       0.85
N       9.34       7.35       1.83
C      12.00       4.81       6.11
C      12.27       6.09       3.60
C      12.81       5.90       5.97
C      12.53       6.72       4.78
