29

N       3.95       6.09      12.12
N      -0.26      -2.67      10.93
H       1.97       6.69      12.33
H       1.06       5.10      10.68
H       5.11       3.72      10.03
H       5.87       5.39      11.68
H       3.27       2.90       8.58
H       1.63       3.57       8.75
H       2.91       1.51      10.64
H       1.28       2.19      10.82
H       2.28       0.52       8.44
H       0.72       1.31       8.48
H       1.78      -0.12      11.75
H       0.69      -2.15      12.69
H      -1.15      -3.03       9.11
H      -0.24      -0.95       8.03
C       2.64       6.00      11.82
C       2.13       5.09      10.90
C       3.01       4.21      10.25
C       4.37       4.33      10.54
C       4.81       5.27      11.47
C       2.49       3.17       9.31
C       2.05       1.91      10.08
C       1.48       0.85       9.13
C       0.88      -0.36       9.79
C       1.13      -0.72      11.12
C       0.53      -1.86      11.65
C      -0.51      -2.33       9.65
C       0.02      -1.19       9.06
