50

Cl       5.14       9.73      16.71
Cl       9.60       6.66      16.68
Cl       5.16       6.59      21.87
H       4.31      11.13      11.53
H       3.67      11.84      13.04
O       6.20       7.69      11.66
O       8.33       8.45      11.64
H       5.98      11.60      14.09
H       4.90       9.02      12.81
H       4.35       9.72      14.34
O       6.18       8.49      26.94
H       9.95       4.64      11.69
H      10.65       4.10      13.25
H       9.30       3.20      12.52
H       8.44       4.64      14.39
H       7.79       5.18      12.84
H       9.53       6.97      12.71
H      10.20       6.43      14.26
O       8.30       7.68      26.97
H       4.90      12.70      12.09
H       6.57      10.89      12.58
C       7.26       8.08      12.23
C       7.39       8.21      18.02
C       6.37       7.43      22.74
C       7.25       8.10      26.40
C       6.29       8.84      14.42
C       8.30       7.39      14.41
C       6.36       8.87      15.82
C       8.31       7.46      15.81
C       7.36       8.19      16.54
C       7.28       8.10      13.74
C       8.25       8.96      22.81
C       7.37       8.22      20.59
C       5.22       9.61      13.68
C       5.68      11.00      13.21
C       4.58      11.71      12.43
C       9.28       6.51      13.67
C       8.72       5.10      13.42
C       9.71       4.21      12.68
C       6.37       7.36      24.15
C       8.21       8.95      24.22
C       7.28       8.13      24.89
C       7.33       8.21      22.07
N       7.42       9.41      18.64
N       7.38       7.02      18.65
N       7.36       9.42      19.96
N       7.43       7.02      19.97
Cl       9.49       9.86      22.03
Cl       5.28       6.31      24.96
Cl       9.28       9.94      25.12
