18

C      15.63       8.15       3.58
C      14.46      11.86       5.38
C      14.41       9.36       5.29
O      14.90      12.93       4.84
H      15.96       7.20       3.15
O      13.76       6.93       6.45
C      16.96       9.36       1.84
C      14.82      10.57       4.72
C      14.46       6.85       5.38
H      13.80       9.36       6.19
C      16.03       9.36       3.01
H      15.96      11.51       3.15
C      14.82       8.15       4.72
O      13.76      11.79       6.45
O      17.33       8.22       1.40
O      17.33      10.50       1.40
C      15.62      10.57       3.58
O      14.90       5.79       4.84
