14

C       0.49       4.49      13.58
H      -0.31       5.14      13.93
O       1.33       2.65      10.58
H       3.41       3.08      14.64
H      -0.38       4.20      11.63
C       0.45       3.96      12.30
C       3.61       1.83      12.34
O       3.62       1.19      11.24
C       1.47       3.10      11.80
C       2.54       2.79      12.69
O       4.55       1.64      13.20
Br       1.63       4.91      16.19
C       2.58       3.34      13.99
C       1.56       4.17      14.43
