69

H       2.39       0.54       6.08
H       3.58      -0.47       6.67
H       1.55      -2.55      11.05
H       0.28      -2.48       9.97
H       3.03       3.57       8.66
H       3.49       2.44       7.39
H       0.77       1.20      12.57
H       0.35      -0.51      12.21
H       1.75       1.23      17.45
H       2.91       2.26      18.07
H       2.46       1.82      13.55
H       2.93       1.32      15.18
H       0.47       6.44      18.09
H      -0.66       6.59      16.90
H       0.48       6.43      13.41
H       0.24       7.18      14.97
H       2.23       7.00      12.63
H       2.30       8.71      12.49
H       2.37      10.94      10.10
H       3.31      10.02      11.09
H       1.22       4.54       8.42
H       0.89       5.51       7.05
H       0.66       8.64       6.28
H      -0.28       7.34       6.64
C       1.49      10.21       7.95
C       1.95      -2.04       7.97
C       1.31       4.21      18.64
C       1.44       4.10      12.87
C       1.74       2.93      10.89
C       1.62       5.24      10.87
C       1.40      -0.77      10.02
C       1.37       0.44      10.76
C       1.84       1.67      10.16
C       2.38       1.62       8.83
C       2.43       0.39       8.13
C       1.93      -0.76       8.73
C       1.83       2.99      15.10
C       1.85       3.06      16.51
C       1.34       4.19      17.15
C       0.85       5.29      16.45
C       0.84       5.25      15.03
C       1.34       4.10      14.33
C       1.98       7.73      10.76
C       1.96       8.94      10.03
C       1.51       8.94       8.70
C       1.12       7.76       8.06
C       1.21       6.53       8.75
C       1.61       6.51      10.12
N       1.57       2.91      12.23
N       1.81       4.09      10.19
N       1.43       5.27      12.21
N       3.06       0.39       6.84
N       0.84      -1.94      10.63
N       2.86       2.70       8.15
N       0.86       0.35      12.01
N       2.43       1.96      17.22
N       2.31       1.83      14.56
N       0.35       6.47      17.08
N       0.28       6.33      14.40
N       2.47       7.81      12.05
N       2.37      10.12      10.71
N       0.81       5.40       8.05
N       0.67       7.72       6.71
O       2.20       4.88      19.26
O       2.38      10.41       7.06
O       2.86      -2.90       8.23
O       0.39       3.55      19.24
O       1.04      -2.23       7.08
O       0.57      11.07       8.21
