22

H       6.69       8.73       5.45
H       6.61       4.45       5.12
H       6.70       5.30       9.87
H       6.65       9.58      10.20
O       6.71       6.13      12.16
C       6.67       8.70       9.56
C       6.68       7.31      11.66
C       6.65       6.73       3.65
Cl       6.67      10.40       7.49
Cl       6.66       3.64       7.82
C       6.68       7.76       5.93
C       6.65       5.34       5.75
O       6.64       8.40      12.32
C       6.69       6.37       7.97
C       6.70       6.28       9.38
C       6.67       5.23       7.12
C       6.68       8.81       8.19
C       6.69       7.67       7.34
C       6.66       6.62       5.15
C       6.68       7.42      10.17
O       6.60       5.63       3.00
O       6.68       7.90       3.15
