22

C      19.52      18.48      27.53
C      21.49      19.45      29.28
C      19.41      19.81      28.00
C      21.60      18.12      28.81
C      20.41      20.24      28.87
C      20.60      17.68      27.94
H      20.36      21.26      29.27
H      20.65      16.66      27.56
C      18.31      20.76      27.65
C      22.70      17.16      29.17
H      17.33      20.38      27.95
H      18.26      20.94      26.57
H      18.48      21.72      28.16
H      22.79      17.03      30.26
H      23.68      17.52      28.83
H      22.51      16.18      28.72
C      18.53      17.84      26.60
C      22.47      20.07      30.23
O      18.77      16.64      26.24
O      17.52      18.53      26.24
O      22.15      21.22      30.70
O      23.53      19.42      30.52
