30

H       5.14      13.68       9.45
H       1.30       8.30      16.13
H       5.71       9.47      14.13
H       0.72      12.51      11.45
H       5.58       7.82      16.00
H       0.86      14.17       9.58
H       4.95      11.30      12.15
H       1.49      10.68      13.44
C       3.38       6.99      17.29
C       3.06      14.99       8.29
C       3.43       7.97      16.16
C       3.01      14.01       9.42
C       2.26       8.55      15.69
C       4.18      13.43       9.90
C       2.32       9.48      14.64
C       4.12      12.50      10.94
C       3.59       9.81      14.07
C       2.85      12.17      11.52
C       4.76       9.20      14.57
C       1.68      12.78      11.02
C       4.68       8.29      15.60
C       1.76      13.69       9.98
N       3.75      10.71      13.02
N       2.69      11.28      12.56
O       4.49       6.50      17.68
O       1.95      15.48       7.91
O       2.23       6.73      17.79
O       4.21      15.25       7.79
O       5.26      11.93      11.39
O       1.18      10.05      14.19
