13

H      17.15       9.65      14.33
H      18.01       8.60      15.49
H      16.94       7.97      11.75
H      15.68       8.59      12.79
C      17.15       8.66      14.82
O      15.21       7.47      15.58
O      15.62       9.46      16.51
O      15.57       5.52      13.19
O      14.75       6.51      11.37
C      15.90       8.54      15.69
N      17.24       7.57      13.83
C      16.36       7.74      12.66
C      15.51       6.51      12.39
