20

H      16.81      10.71      13.54
H      15.92      12.25      13.46
H      14.13      11.30      14.96
H      15.02       9.76      15.04
O      10.86       8.25      13.01
O      12.03       9.08      14.79
C      11.83       8.87      13.54
C      16.02      11.10      10.01
O      16.98      11.68      10.62
O      15.90      10.94       8.76
C      14.95      10.53      10.88
C      12.87       9.43      12.62
C      14.99      10.62      12.27
C      12.82       9.32      11.22
C      14.00      10.10      13.10
C      13.81       9.85      10.38
C      15.81      11.16      13.43
C      14.69      10.56      14.37
F      13.61       9.68       9.06
F      11.79       8.70      10.59
