18

C       6.84      13.19       4.85
C      10.39      12.36       5.83
C      10.16      15.67       7.63
C       8.19      13.28       5.46
O       5.95      14.05       5.09
C       8.52      14.40       6.24
C      11.39      11.28       5.60
O      12.59      11.43       6.07
O      11.27      15.74       8.23
C      10.73      13.47       6.61
H       7.79      15.19       6.40
O      11.08      10.23       4.98
C       9.12      12.26       5.26
O       6.58      12.19       4.06
H      11.73      13.54       7.06
O       9.30      16.64       7.74
H       8.86      11.40       4.65
C       9.80      14.49       6.81
