14

O      16.89       7.67      13.58
O      15.81       5.66      13.47
C      11.80       9.29       9.66
C      15.93       6.91      13.21
H      11.91       6.90      10.85
H      13.78       9.33      10.56
H      13.80       5.80      12.02
H      14.97       8.64      12.32
O      11.99      10.51       9.30
C      12.82       7.48      11.03
O      10.78       8.57       9.41
C      12.90       8.70      10.46
C      13.86       6.88      11.84
C      14.87       7.56      12.42
