30

H      10.61       0.00       0.00
H       1.30       0.00      -0.00
H       6.89       0.62      -2.07
H       5.02      -0.62      -2.07
H       5.02       0.62       2.07
H       6.89      -0.62       2.07
C       9.51       0.50      -2.47
C       2.40      -0.50      -2.47
C       2.40       0.50       2.47
C       9.51      -0.50       2.47
C       8.81       0.28      -1.17
C       3.10      -0.28      -1.17
C       3.10       0.28       1.17
C       8.81      -0.28       1.17
C       9.52      -0.00       0.00
C       2.39       0.00      -0.00
C       7.41       0.32      -1.16
C       4.50      -0.32      -1.16
C       4.50       0.32       1.16
C       7.41      -0.32       1.16
C       6.69       0.00      -0.00
C       5.22       0.00      -0.00
O      10.67      -0.00      -2.59
O       1.24       0.00      -2.59
O       1.24      -0.00       2.59
O      10.67       0.00       2.59
O       8.87       1.15      -3.37
O       3.04      -1.15      -3.37
O       3.04       1.15       3.37
O       8.87      -1.15       3.37
