17

O       9.43      11.43       1.69
O      10.58      11.79      -0.21
C      10.35      12.04       1.02
C      11.18      13.05       1.72
H      11.90      13.60       1.12
C      11.06      13.21       3.06
H      10.33      12.60       3.59
C      11.84      14.13       3.88
C      12.84      14.98       3.37
C      11.62      14.15       5.27
H      13.07      15.02       2.30
C      13.56      15.77       4.24
H      14.33      16.46       3.89
H      10.84      13.53       5.70
C      12.40      14.96       6.07
H      12.26      14.99       7.16
N      13.37      15.75       5.58
