16

H      -3.59      10.38      12.62
H      -1.92      13.45      16.15
H      -0.29      12.22      14.67
H      -5.22      11.68      14.04
O      -1.45       9.56      11.93
O      -4.07      14.02      17.05
O       0.31      10.82      12.60
O      -5.82      13.52      15.71
C      -0.90      10.51      12.65
C      -4.61      13.44      16.02
C      -1.86      11.24      13.54
C      -3.66      12.65      15.17
C      -3.24      11.08      13.38
C      -2.27      12.79      15.35
C      -1.37      12.11      14.54
C      -4.14      11.79      14.17
