76

H       3.06       9.23       3.90
H       2.93       6.59       4.18
H       9.29       5.24      -5.09
H       9.70       7.86      -5.12
H      10.95       1.58      -3.45
H       9.88       5.46      -0.57
H       9.88       9.99      -4.42
H      11.51       9.93       0.26
H       0.79       2.89       2.77
H       2.75       6.05      -0.52
H       0.56      10.49      -1.08
H       3.50      11.34       2.82
H       5.24       5.27       0.69
H       7.16       9.05      -1.80
C       3.68       8.81       1.84
C       3.41       8.51       3.17
C       3.32       7.11       3.31
C       3.53       6.54       2.06
C       8.68       5.55      -3.00
C       9.00       5.93      -4.30
C       9.21       7.32      -4.32
C       9.01       7.82      -3.04
C      12.71       1.86      -1.48
C      12.71      11.90      -1.27
C      -0.17       2.49       0.25
C      -0.33      12.53       0.43
C      10.67       2.40      -2.80
C      11.47       2.65      -1.66
C      11.07       3.71      -0.83
C      10.04       4.57      -1.18
C       9.33       4.40      -2.39
C       9.62       3.23      -3.12
C      10.24       9.93      -3.39
C       9.71       8.98      -2.50
C      10.20       9.04      -1.18
C      11.19       9.92      -0.78
C      11.77      10.80      -1.70
C      11.25      10.79      -2.99
C       1.22       3.57       2.04
C       0.78       3.56       0.72
C       1.42       4.42      -0.18
C       2.39       5.32       0.21
C       2.83       5.36       1.55
C       2.25       4.42       2.42
C       1.21      10.68      -0.23
C       0.91      11.76       0.62
C       1.82      11.99       1.67
C       2.87      11.14       1.95
C       3.06       9.96       1.20
C       2.26       9.83       0.04
C       5.63       6.12       0.14
C       5.02       7.38       0.27
C       5.65       8.40      -0.47
C       6.77       8.19      -1.26
C       7.39       6.94      -1.37
C       6.75       5.91      -0.65
N       3.94       7.58       1.18
N       8.50       6.75      -2.25
O      13.08       1.15      -2.46
O      13.33       1.96      -0.36
O      13.88      12.00      -1.71
O      -1.32       2.35       0.76
O      -0.76      13.23       1.40
O      -0.90      12.45      -0.73
O      12.11      12.71      -0.47
O       0.37       1.75      -0.65
F       8.91       2.97      -4.26
F      11.74       4.00       0.31
F      11.71      11.71      -3.89
F       9.74       8.17      -0.24
F       2.67       4.36       3.72
F       1.03       4.43      -1.49
F       2.44       8.76      -0.78
F       1.69      13.08       2.48
F       7.22       4.64      -0.68
F       5.17       9.68      -0.44
