40

C       4.64      14.69      13.41
C       2.60      12.81      13.42
C       4.58      13.73      12.40
C       2.67      13.77      14.43
C       3.55      12.77      12.39
C       3.69      14.73      14.45
N       1.46      16.43      15.20
N       5.79      11.07      11.64
H       5.84      15.30      15.95
H       1.41      12.19      10.88
O       5.32      19.10      18.97
O       1.93       8.37       7.88
H       6.11      17.11      17.65
H       1.14      10.37       9.19
H       5.43      15.45      13.39
H       1.81      12.05      13.45
H       5.31      13.74      11.60
H       1.93      13.76      15.24
O       3.15      19.62      18.58
O       4.11       7.85       8.28
H       2.02      18.25      17.04
H       5.24       9.23       9.81
H       0.79      17.18      15.29
H       1.45      15.95      14.31
H       5.80      11.56      12.53
H       6.46      10.32      11.56
C       4.20      18.91      18.40
C       3.06       8.57       8.45
C       2.85      17.60      16.78
C       4.40       9.89      10.07
C       2.68      16.59      15.82
C       4.57      10.90      11.03
C       3.79      15.76      15.50
C       3.46      11.73      11.33
C       5.00      15.96      16.18
C       2.25      11.53      10.66
C       5.16      16.96      17.13
C       2.09      10.52       9.71
C       4.07      17.79      17.43
C       3.18       9.69       9.42
