22

C      -2.53       5.38      11.68
C      -8.32       0.97      15.56
C      -3.43       5.10      12.70
C      -7.42       1.25      14.54
C      -4.32       4.02      12.54
C      -6.54       2.32      14.70
C      -4.31       3.30      11.34
C      -6.54       3.05      15.90
C      -3.39       3.67      10.36
C      -7.46       2.68      16.88
H      -1.79       6.17      11.76
H      -9.07       0.18      15.48
H      -3.45       5.68      13.63
H      -7.40       0.67      13.62
H      -5.01       2.48      11.18
H      -5.84       3.86      16.06
H      -3.34       3.15       9.41
N      -2.52       4.68      10.53
N      -8.34       1.67      16.71
N      -5.19       3.76      13.62
N      -5.66       2.59      13.62
H      -7.51       3.20      17.84
