40

C       7.05      23.11      14.71
C       8.40      26.02      18.65
C      14.49      26.97       9.76
C      17.00      27.30      14.28
O      17.87      28.27      11.91
O      17.17      27.13      10.07
H       9.33      24.12      13.68
H      10.57      26.44      17.10
H      12.59      26.18      11.38
H      14.60      26.72      15.16
O       5.47      23.99      16.66
O       6.60      24.05      18.65
H       6.45      24.52      13.54
H       9.73      24.84      19.38
H      15.52      25.37       9.30
H      17.07      29.26      14.11
C      17.04      27.55      11.27
C       6.50      24.17      17.38
O       6.36      23.55      13.63
O       6.97      21.94      15.06
O       9.20      25.61      19.66
O       7.56      26.89      18.83
O      14.85      25.98       8.92
O      13.90      27.95       9.34
O      17.38      28.53      14.69
O      17.55      26.31      14.72
C       7.74      24.57      16.67
C       7.98      24.10      15.36
C       9.13      24.49      14.68
C      10.08      25.32      15.31
C       9.84      25.77      16.62
C       8.68      25.41      17.29
C      11.26      25.70      14.62
C      12.28      26.02      14.03
C      13.46      26.40      13.35
C      13.49      26.42      11.94
C      14.65      26.79      11.26
C      15.80      27.15      11.99
C      15.78      27.14      13.40
C      14.61      26.76      14.07
