26

Cl       1.98      -1.76      11.35
Cl       1.98       1.76       2.91
O       1.09      -5.23       9.40
O       2.96      -4.59      10.49
H       2.00       0.27       9.48
H       2.00      -0.27       4.78
H       1.92       4.03       7.23
H       1.97       1.94       8.50
H       1.92      -4.03       7.03
H       1.97      -1.94       5.75
O       1.09       5.23       4.86
O       2.96       4.59       3.76
C       2.01      -4.39       9.68
C       2.01       4.39       4.58
C       1.98      -3.08       8.95
C       1.98       3.08       5.30
C       2.01      -1.85       9.62
C       2.00      -0.66       8.90
C       2.01       1.85       4.64
C       2.00       0.66       5.35
C       1.95       3.08       6.70
C       1.98       1.89       7.41
C       1.95      -3.08       7.55
C       1.98      -1.89       6.84
C       2.00      -0.64       7.50
C       2.00       0.64       6.75
