28

H       2.31      17.33       4.46
H       3.13      15.81       7.07
H      -1.31      11.99       5.94
H      -2.10      13.08       7.08
H      -2.56      13.11       5.36
H      -2.80      14.93       4.15
H      -1.72      15.63       2.93
H      -1.81      13.87       3.14
C       0.50      11.55       9.84
C       1.48      15.06       6.50
C       0.44      14.12       6.70
C      -0.66      14.05       5.79
C      -0.71      14.90       4.69
C       0.34      15.85       4.51
C       1.42      15.92       5.41
C       0.50      13.25       7.81
C       0.36      16.76       3.43
C       0.46      17.58       2.52
C       0.50      12.48       8.75
C       0.49      18.50       1.42
C      -1.72      13.01       6.05
C      -1.82      14.83       3.68
O      -0.64      11.21      10.31
O       1.64      11.15      10.26
O       1.64      18.91       1.05
O      -0.63      18.82       0.92
O       2.45      16.81       5.28
O       2.52      15.12       7.38
