13

H      -0.36       5.37       1.87
O      -2.97       6.99       1.52
C      -1.43       5.20       2.03
H      -1.56       3.34      -0.79
O      -1.06       6.32      -0.90
O      -1.65       7.23       3.30
C      -0.51       5.17      -1.00
C      -2.06       6.56       2.31
H      -1.50       4.59       2.94
O       0.44       4.92      -1.79
C      -1.06       4.05      -0.12
N      -2.03       4.53       0.87
H      -0.22       3.53       0.36
