71

O      13.61       3.33      24.39
O      13.93       5.20      23.19
O      15.01       7.10      29.24
O      14.70       9.56      31.54
O       9.64      12.56      33.93
O       9.21      10.55      34.73
O      18.21       6.59      30.31
O      23.96       3.95      31.05
O      22.73       2.44      32.12
O      17.78       9.03      32.56
O      22.70      12.78      34.21
O      22.62      11.36      35.95
H      15.12       6.98      24.64
H      15.67       8.13      26.79
H      13.72       4.94      28.96
H      13.24       3.78      26.78
H      16.85       7.93      28.74
H      15.56       9.11      29.16
H      15.45       8.10      32.83
H      14.42       7.49      31.49
H      13.13       8.04      33.17
H      11.09       8.82      34.19
H      11.65      12.74      32.40
H      13.73      11.93      31.33
H      16.36       5.88      30.96
H      17.38       6.66      32.22
H      18.34       4.66      32.25
H      20.39       3.32      32.69
H      22.42       5.39      29.49
H      20.38       6.71      29.05
H      16.98      10.16      31.00
H      18.33       9.06      30.55
H      18.78       8.57      34.85
H      20.71       9.80      35.90
H      21.01      12.31      32.45
H      19.10      11.12      31.38
H       9.57       9.64      34.74
H      23.88       4.83      30.64
C      13.89       4.58      24.30
C      14.16       5.31      25.58
C      14.83       6.54      25.59
C      15.14       7.18      26.79
C      14.75       6.58      28.00
C      14.03       5.37      28.00
C      13.76       4.74      26.80
C      15.99       8.12      29.40
C      16.42       8.06      30.87
C      15.19       8.23      31.77
C      13.55       9.93      32.16
C      12.81       9.06      32.98
C      11.64       9.53      33.56
C      11.20      10.84      33.35
C      11.97      11.71      32.55
C      13.13      11.25      31.95
C       9.99      11.38      33.99
C      17.06       6.70      31.17
C      19.25       5.79      30.64
C      19.24       4.83      31.66
C      20.38       4.08      31.91
C      21.56       4.29      31.17
C      21.54       5.24      30.13
C      20.40       5.98      29.86
C      22.76       3.49      31.48
C      17.43       9.17      31.18
C      18.82       9.77      33.06
C      19.27       9.40      34.34
C      20.33      10.08      34.92
C      20.97      11.12      34.24
C      20.51      11.49      32.97
C      19.44      10.82      32.37
C      22.16      11.80      34.84
