48

O       1.33       6.19       4.57
H      -3.27       3.29      -5.30
H      -2.42       4.77      -3.49
O      -0.22       4.56       4.95
H      -6.51       6.02      -6.03
H      -6.22      12.85      -2.87
H      -5.59      10.44      -2.76
H      -1.94      11.52      -0.73
H      -2.59      13.92      -0.86
H       0.70       7.79       2.95
H      -0.48       8.65       0.94
H      -2.86       5.06       0.83
H      -1.68       4.23       2.86
H      -4.22       8.92      -3.59
H      -2.45       9.49       0.28
H      -2.71       5.54      -1.40
H      -5.69       7.49      -4.21
C      -5.47       3.67      -6.81
C      -4.94       4.56      -5.76
C      -3.79       4.22      -5.04
C      -3.32       5.04      -4.03
C      -3.99       6.24      -3.71
C      -5.13       6.59      -4.46
C      -5.61       5.76      -5.47
C      -4.87      14.96      -1.86
C      -4.43      13.53      -1.88
C      -5.27      12.54      -2.43
C      -4.91      11.20      -2.36
C      -3.71      10.80      -1.75
C      -2.87      11.80      -1.21
C      -3.22      13.14      -1.28
C       0.28       5.51       4.28
C      -0.41       5.95       3.02
C      -0.08       7.20       2.47
C      -0.75       7.68       1.35
C      -1.76       6.92       0.73
C      -2.06       5.66       1.28
C      -1.41       5.18       2.41
C      -3.54       7.12      -2.62
C      -3.76       8.50      -2.70
C      -3.37       9.37      -1.67
C      -2.71       8.83      -0.55
C      -2.89       6.61      -1.48
C      -2.46       7.46      -0.45
O      -4.74       2.77      -7.36
O      -6.68       3.79      -7.22
O      -6.05      15.17      -2.32
O      -4.08      15.83      -1.40
