22

N       4.00       8.11       9.62
N      -3.88       7.98       9.59
H      -0.84      10.23      10.38
O       1.07      10.01       7.97
H       0.96       5.89       8.83
H       0.37      10.59       7.60
H      -0.26       5.54      11.61
O       1.07       8.54      12.10
O      -0.95       7.59       7.11
H       0.38       8.74      12.76
H      -0.26       7.40       6.45
O      -0.95       6.11      11.23
C      -0.43       9.28      10.04
C       0.54       6.85       9.17
C       0.50       8.32      10.87
C      -0.38       7.81       8.33
C       0.50       9.06       8.78
C      -0.38       7.06      10.42
C       1.42       8.08       9.61
C      -1.31       8.04       9.60
C       2.84       8.11       9.61
C      -2.72       8.01       9.59
