40

H       1.94      11.66       9.23
H       2.16      13.82       5.48
H       2.16      15.51      11.45
H       1.93      17.68       7.71
H       0.30       8.66       7.26
H       3.79      10.62       3.87
H       3.79      18.72      13.06
H       0.30      20.67       9.68
C       2.04      20.18      11.65
C       2.05       9.15       5.28
C       2.05      10.46       6.04
C       1.95      10.48       7.45
C       1.98      11.69       8.14
C       2.05      12.91       7.46
C       2.11      12.89       6.05
C       2.14      11.69       5.35
C       2.04      14.14       8.16
C       2.05      15.20       8.77
C       2.05      16.42       9.48
C       2.11      16.44      10.88
C       2.14      17.65      11.58
C       2.04      18.88      10.90
C       1.95      18.86       9.49
C       1.98      17.65       8.80
C       1.85       9.24       8.29
C       2.24      11.80       3.86
C       2.24      17.54      13.08
C       1.85      20.09       8.65
O       1.08      20.41      12.46
O       3.01      20.99      11.45
O       1.08       8.92       4.48
O       3.02       8.34       5.49
O       0.98       8.29       7.86
O       2.53       9.08       9.27
O       3.11      10.95       3.26
O       1.56      12.57       3.23
O       3.11      18.38      13.68
O       1.56      16.76      13.70
O       0.98      21.04       9.08
O       2.53      20.25       7.66
