12

C       3.66       7.84       2.57
C       3.38      11.58      -2.57
C       3.61       8.55       1.58
C       3.43      10.86      -1.58
C       3.55       9.34       0.50
C       3.49      10.07      -0.50
C       3.68       7.00       3.75
C       3.36      12.41      -3.75
O       4.83       6.68       4.20
O       2.21      12.73      -4.20
O       2.54       6.69       4.23
O       4.49      12.73      -4.23
