13

C      -0.00       3.12       3.38
H       0.00       2.69       6.12
C       0.00       3.74       5.84
O      -0.00       1.87       3.72
C      -0.00       4.12       4.49
H      -0.00       5.80       3.14
H      -0.00       7.48       5.02
C      -0.00       5.48       4.18
N      -0.00       6.04       6.51
O      -0.00       3.56       2.20
C       0.00       4.73       6.82
C      -0.00       6.41       5.22
H       0.00       4.50       7.88
