32

H       4.68       9.01      11.13
H       3.10       9.73      11.38
H       4.35       9.87      12.65
H       4.19       3.85      19.28
H       5.46       4.30      18.12
H       5.29       5.15      19.67
H       2.38       4.65      14.38
H       1.59       8.31      16.31
H       2.48       4.73      11.88
H       1.63       8.23      18.81
H       3.66       8.75      14.51
H       4.41       5.06      16.21
C       3.10       6.74      10.30
C       2.68       5.56      13.87
C       2.21       7.58      16.83
C       2.73       5.60      12.48
C       2.95       6.57      20.40
C       2.23       7.53      18.22
C       3.10       6.77      11.80
C       3.00       6.58      18.91
C       3.44       7.93      12.53
C       3.81       5.67      18.18
C       3.37       7.87      13.93
C       3.77       5.74      16.78
C       3.00       6.70      14.61
C       2.98       6.67      16.09
C       3.92       9.21      11.89
C       4.74       4.69      18.85
O       3.32       5.61       9.75
O       2.89       7.70      20.98
O       2.87       7.82       9.68
O       2.94       5.44      20.99
