32

C       5.49       5.32       7.45
C       6.00       4.93       5.33
C       6.59       6.11       5.74
C       4.60       3.17       6.54
C       5.21       2.28       7.59
C       6.58       2.01       7.58
C       4.40       1.72       8.59
N       5.28      -3.42      10.09
N       6.23      -1.53      10.72
N       6.26       6.34       7.06
N       5.31       4.45       6.43
H       6.47      -2.28       8.71
H       5.52      -1.48      12.76
H       4.33      -3.89      11.97
H       8.00      -0.45      10.38
H       6.92       0.20      11.61
H       4.32       0.48      10.34
H       8.21       0.98       8.55
H       5.07       5.20       8.45
H       6.02       4.39       4.39
H       7.21       6.81       5.18
H       3.54       3.37       6.77
H       4.62       2.71       5.54
H       7.22       2.44       6.81
H       3.33       1.94       8.60
C       6.05      -2.41       9.70
C       5.54      -2.02      11.82
C       4.95      -3.20      11.41
C       6.94      -0.26      10.62
C       6.33       0.64       9.57
C       4.96       0.91       9.57
C       7.14       1.19       8.56
