30

H       0.04      12.07      14.50
H       4.70      12.07      13.88
C      -1.39      12.07      12.22
C       0.11      12.07      12.35
C       0.94      12.07      11.22
C       2.32      12.07      11.37
C       2.92      12.07      12.65
H       9.33      12.07      14.19
H       6.86      12.07      14.14
C       2.07      12.07      13.77
C       0.69      12.07      13.62
H       6.97      12.07       9.82
C       4.36      12.07      12.84
H       9.46      12.07       9.90
H       4.93      12.07      10.81
C      11.03      12.07      12.08
C       9.55      12.07      12.05
C       8.80      12.07      13.24
C       7.42      12.07      13.20
C       6.73      12.07      11.97
C       7.49      12.07      10.78
O      11.60      12.07      13.23
C       8.88      12.07      10.82
O      11.64      12.07      10.95
C       5.28      12.07      11.85
O      -1.95      10.92      12.18
H       0.50      12.07      10.22
H       2.94      12.07      10.48
O      -1.95      13.21      12.18
H       2.51      12.07      14.77
