16

C       7.44       7.83      18.28
S       7.52       5.06      18.28
S       7.34       4.31      22.41
F       7.29       7.49      21.33
F       7.57       1.88      19.36
O       7.34       1.71      23.68
C       7.42       1.54      22.41
O       7.50       0.44      21.78
C       7.37       6.47      20.47
O       7.52       7.66      17.01
C       7.43       6.61      19.09
C       7.49       2.90      20.22
O       7.36       8.94      18.90
C       7.47       4.25      19.80
C       7.39       5.13      20.89
C       7.43       2.77      21.60
