27

C      10.39      13.95      15.70
C      11.86      13.77      15.86
C      12.71      13.80      14.74
H      12.29      13.98      13.75
C      14.08      13.65      14.89
H      14.74      13.70      14.03
C      12.43      13.59      17.13
O       9.70      13.94      16.78
H      11.77      13.60      18.00
O       9.94      14.12      14.52
C      13.80      13.41      17.29
H      14.23      13.28      18.28
O      16.00      13.34      16.22
C      14.62      13.43      16.16
H      14.99      11.10      17.42
C      16.66      12.40      16.97
C      16.06      11.27      17.53
O      18.47       8.44      19.39
H      19.90      11.79      17.80
C      18.82      11.66      17.74
C      19.06       9.52      19.05
O      20.28       9.80      19.29
H      18.49      13.47      16.60
H      16.40       9.44      18.63
C      18.24      10.52      18.32
C      18.04      12.59      17.07
C      16.85      10.34      18.20
