28

C       4.30      12.04      12.86
C       1.73      11.63      12.04
H       3.20       8.83      15.26
H       3.65      15.56      10.97
H       3.01      13.00      14.60
H       3.02      10.66      10.29
N       1.61       9.39      16.56
H       4.15       9.67      12.68
N       5.44      15.35       9.85
H       1.87      14.00      12.19
N       0.57      10.28      16.49
H       5.34      12.22      13.15
N       6.21      14.28       9.44
H       0.70      11.46      11.72
C       2.32       9.46      15.41
C       4.39      14.88      10.56
C       0.66      10.86      15.28
C       5.59      13.19       9.90
F      -0.24      11.80      14.92
F       6.10      11.97       9.65
C       1.76      10.41      14.54
C       4.44      13.48      10.64
C       3.65      10.64      12.59
C       2.38      13.04      12.31
C       3.03      12.50      13.63
C       3.01      11.18      11.26
C       2.37      11.08      13.38
C       3.67      12.60      11.52
