16

H       9.35       9.73       5.71
H       5.30      12.40       4.65
H       9.39      12.23       5.93
H       5.26       9.90       4.43
C       7.40      13.96       5.37
C       8.49      11.71       5.60
C       6.16      10.42       4.76
C       8.47      10.33       5.48
C       6.18      11.81       4.89
C       7.31       9.67       5.05
C       7.35      12.46       5.30
C       7.28       8.18       4.96
O       6.31      14.58       5.56
O       8.40       7.57       4.89
O       8.55      14.49       5.23
O       6.13       7.62       4.97
