12

H       2.65       4.33      15.63
H       1.67       4.27      13.45
H       1.84       5.96      13.89
O       5.30       6.00      15.08
O       3.34       6.69      16.05
O       4.41       5.47      12.28
O       2.39       5.37      11.28
N       4.27       3.63      14.42
C       4.04       5.90      15.36
C       3.30       4.67      14.81
C       2.41       5.06      13.63
C       3.13       5.32      12.29
