16

H       8.70       6.96       4.15
H       7.46       3.83       7.34
H       8.70       2.30       8.86
H      11.19       2.28       8.85
H      12.45       3.79       7.33
H      11.24       6.94       4.15
C       8.54       3.81       7.35
C       9.24       2.97       8.19
C      10.66       2.96       8.18
C      11.37       3.79       7.34
C      10.68       4.66       6.47
C       9.24       4.67       6.47
C       9.26       6.30       4.82
C      10.67       6.29       4.82
N       8.56       5.51       5.63
N      11.36       5.50       5.62
