64

H       3.38       5.78       1.59
H       7.28      -0.12      -2.98
H       4.03       6.52      -6.63
H       6.32       2.00      -6.60
H       2.50       8.33      -3.04
H       5.70       2.14       1.65
C       4.39       3.93       5.81
C       8.28      -2.20      -7.16
C       2.07      10.73      -7.13
C       3.86       4.97       2.13
C       4.55       3.96       1.44
C       7.31      -0.03      -4.07
C       6.79       1.11      -4.70
C       3.29       7.27      -4.75
C       3.51       7.33      -6.13
C       6.76       1.14      -6.10
C       7.23       0.07      -6.83
C       7.84      -1.07      -6.24
C       7.82      -1.08      -4.82
C       3.09       8.45      -6.84
C       2.39       9.53      -6.26
C       2.19       9.42      -4.87
C       2.63       8.33      -4.12
C       5.16       2.94       2.16
C       5.08       2.93       3.55
C       4.42       3.93       4.28
C       3.81       4.94       3.52
C       4.11       5.08      -1.97
C       5.50       3.07      -1.93
C       4.64       4.00      -0.03
C       3.81       6.12      -3.99
C       5.04       4.19      -4.04
C       6.19       2.22      -3.94
N       4.88       4.11      -2.65
N       5.39       3.04      -0.61
N       3.98       4.99      -0.65
N       3.53       6.06      -2.67
N       4.53       5.23      -4.70
N       6.18       2.13      -2.60
N       5.68       3.22      -4.68
N       5.73       1.80       4.25
N       3.12       6.06       4.18
N       1.55      10.47      -4.02
N       3.48       8.34      -8.28
N       6.97       0.23      -8.29
N       8.25      -2.25      -4.00
O       0.99      11.38      -7.00
O       3.38       3.39       6.35
O       7.43      -2.46      -8.07
O       2.97      10.99      -8.00
O       5.22      -2.76      -7.04
O       5.39       4.47       6.36
O       5.33       1.56       5.39
O       6.60       1.18       3.63
O       3.46       6.31       5.34
O       2.27       6.67       3.52
O       0.53      11.02      -4.44
O       2.09      10.68      -2.93
O       4.55       8.85      -8.61
O       2.75       7.64      -8.98
O       5.93      -0.27      -8.71
O       7.75       0.96      -8.91
O       4.97      -2.97      -4.43
O       7.66      -2.40      -2.93
