33

H       8.88       0.68      10.01
C       7.29       3.71      10.18
O       7.90      -0.99       8.50
H       9.17       2.97      10.93
C       6.11       3.34       9.51
C       5.93       2.04       9.02
H       5.34       4.09       9.32
C       7.52       5.10      10.61
H       5.04       1.78       8.46
C       8.83       5.64      10.65
H       9.68       5.03      10.35
C       9.06       6.95      11.03
H      10.08       7.33      10.99
H       5.85       7.87      11.67
C       7.99       7.79      11.39
C       6.69       7.27      11.34
H       5.44       5.57      10.99
C       6.46       5.95      10.95
H       6.33       9.99      11.11
C       8.21       9.17      11.85
H       6.72      12.24      12.09
C       7.25      10.18      11.67
H      10.37      11.12      13.66
C       7.45      11.44      12.21
H      10.17       8.81      12.71
C       6.85      -0.26       8.54
C       9.51      10.81      13.07
C       6.94       1.08       9.19
C       9.38       9.54      12.54
C       8.10       1.43       9.89
N       8.54      11.75      12.93
O       5.77      -0.66       7.97
C       8.27       2.72      10.38
