60

H       2.84      21.67      12.99
H       2.07      19.51       9.34
H       3.25      17.39      12.88
H       0.99      17.66      17.98
H       5.09      20.74      18.16
H       1.09      16.95      15.29
H       4.63      21.09      13.85
H       0.44      25.71       9.76
H       1.05      22.21      12.18
H       4.57      24.06       7.08
H       3.83      20.22       9.00
H       4.36      17.72       7.68
H       3.91      14.84       6.77
H       1.45      16.74      12.48
H       1.02      13.02       9.89
C       2.54      25.62       7.98
C       2.43      13.42       8.01
C       3.05      19.20      18.90
C       2.56      20.75      11.04
C       2.79      20.73      12.44
C       2.94      19.51      13.13
C       2.98      18.32      12.38
C       2.67      18.31      11.02
C       2.40      19.52      10.38
C       3.81      20.25      16.78
C       3.78      20.33      15.37
C       3.02      19.42      14.61
C       2.30      18.41      15.28
C       2.29      18.35      16.68
C       3.05      19.26      17.41
C       1.81      23.13      10.70
C       1.79      24.32       9.95
C       2.53      24.36       8.76
C       3.27      23.26       8.29
C       3.24      22.07       9.02
C       2.53      22.00      10.25
C       3.27      16.93       9.03
C       3.25      15.74       8.31
C       2.48      14.64       8.78
C       1.78      14.75      10.02
C       1.89      15.93      10.78
C       2.61      17.04      10.27
O       2.07      19.77      19.50
O       1.58      25.83       7.16
O       1.47      12.57       8.23
O       4.02      18.59      19.47
O       3.35      13.20       7.11
O       3.52      26.42       8.18
O       1.55      17.33      17.25
O       4.55      21.18      17.47
O       1.54      17.49      14.60
O       4.55      21.30      14.80
O       1.11      25.42      10.42
O       1.07      23.13      11.85
O       3.95      23.31       7.09
O       3.98      21.05       8.51
O       3.98      18.00       8.54
O       3.93      15.76       7.13
O       1.22      15.94      11.96
O       1.05      13.76      10.55
