24

H       2.32      18.83      16.46
H       6.80      20.38      13.86
H       6.30      21.06      15.34
H       6.20      17.27      12.44
H       7.17      18.32      13.33
C       4.20      14.26      11.35
C       3.12      18.67      15.75
C       4.21      19.58      15.70
C       5.27      19.39      14.78
C       5.23      18.29      13.89
C       4.14      17.39      13.94
C       3.10      17.59      14.89
C       4.23      20.69      16.57
C       4.14      16.29      13.06
C       4.19      15.36      12.27
C       4.29      21.66      17.31
C       4.31      22.77      18.22
Br       1.70      16.32      15.02
N       6.37      20.23      14.76
N       6.24      18.15      12.95
O       3.06      13.78      11.03
O       5.33      13.87      10.92
O       3.19      23.15      18.69
O       5.46      23.27      18.49
