74

H       4.02      13.17       3.10
H       5.40      15.36      13.37
H       1.84      14.57       3.77
H       7.58      13.96      12.70
H       0.21      17.09       8.24
H       9.21      11.44       8.23
H       1.13      17.23      10.77
H       8.29      11.30       5.70
H      -0.77      14.82       6.88
H      10.19      13.71       9.59
H      -2.68      15.68       5.57
H      12.10      12.85      10.90
H      -2.32      17.33       3.74
H      11.74      11.20      12.73
H      -0.00      18.13       3.25
H       9.42      10.40      13.22
H       1.92      17.24       4.55
H       7.50      11.29      11.93
H       4.76      10.56       4.29
H       4.66      17.97      12.18
H       8.44      12.23       1.50
H       0.98      16.31      14.97
H       5.47       9.43       2.17
H       3.95      19.10      14.30
H       7.87      13.48       3.60
H       1.55      15.05      12.87
C       4.63      13.53       5.26
C       4.80      15.00      11.21
C       3.79      13.60       4.07
C       5.63      14.93      12.40
C       2.69      14.33       4.41
C       6.73      14.20      12.06
C       2.83      14.71       5.80
C       6.59      13.82      10.67
C       1.87      15.43       6.55
C       7.55      13.10       9.92
C       1.95      15.69       7.94
C       7.47      12.84       8.53
C       1.06      16.57       8.67
C       8.36      11.96       7.80
C       1.54      16.65       9.95
C       7.89      11.88       6.52
C       2.72      15.81      10.01
C       6.70      12.72       6.46
C       5.85      12.84       5.34
C       3.57      15.69      11.13
C       0.71      15.97       5.80
C       8.71      12.56      10.67
C      -0.60      15.55       6.09
C      10.02      12.98      10.38
C      -1.68      16.03       5.34
C      11.10      12.50      11.13
C      -1.47      16.95       4.31
C      10.89      11.58      12.16
C      -0.17      17.39       4.03
C       9.59      11.14      12.44
C       0.91      16.90       4.77
C       8.51      11.63      11.70
C       6.26      12.12       4.11
C       3.16      16.41      12.36
C       5.59      10.96       3.69
C       3.84      17.57      12.78
C       7.63      11.89       2.15
C       1.79      16.64      14.32
C       5.98      10.33       2.52
C       3.44      18.20      13.95
C       7.32      12.58       3.31
C       2.10      15.95      13.16
N       4.03      14.23       6.28
N       5.39      14.30      10.19
N       2.94      15.23       8.78
N       6.49      13.30       7.69
N       6.98      10.79       1.75
N       2.44      17.74      14.72
