42

C       9.94       9.94      24.46
C       9.06       9.06      25.20
C      10.82      10.82      29.40
C      10.82      10.82      26.60
C      10.82      10.82      22.37
C      10.82      10.82      25.18
H       9.32       9.32      29.30
H      12.32      12.32      29.30
H      12.32      12.32      22.47
H       9.32       9.32      22.47
H       7.07       8.32      24.74
H       8.19       8.19      23.38
H       8.32       7.07      24.75
H       8.32       7.07      27.03
H       8.19       8.19      28.39
H       7.07       8.32      27.02
H      14.57      13.32      24.74
H      13.45      13.45      23.38
H      13.32      14.57      24.75
H      13.32      14.57      27.03
H      13.45      13.45      28.39
H      14.57      13.32      27.02
C       8.12       8.12      24.47
C       8.12       8.12      27.30
C      13.52      13.52      24.47
C      13.52      13.52      27.30
O      11.63      11.63      31.48
O      10.02      10.02      31.48
C      10.82      10.82      30.89
C      10.82      10.82      20.88
O      10.02      10.02      20.30
O      11.63      11.63      20.30
C       9.96       9.96      28.71
C       9.94       9.94      27.31
C       9.06       9.06      26.58
C      11.68      11.68      28.71
C      11.70      11.70      27.31
C      12.59      12.59      26.58
C      11.68      11.68      23.06
C      11.70      11.70      24.46
C      12.58      12.59      25.20
C       9.96       9.96      23.06
