18

C     -17.43      10.43      14.75
C     -16.46       9.85      13.90
C     -16.69       9.78      12.51
C     -15.73       9.22      11.67
C     -14.53       8.73      12.20
C     -14.30       8.79      13.59
C     -15.25       9.35      14.43
C     -13.49       8.13      11.31
O     -20.27      12.07      15.66
O     -19.09      11.55      17.55
O     -12.44       7.68      11.87
O     -13.74       8.12      10.06
H     -17.62      10.17      12.10
H     -15.89       9.17      10.60
H     -13.36       8.40      13.99
H     -15.08       9.40      15.51
C     -19.28      11.56      16.29
C     -18.27      10.94      15.47
