22

O      -2.64      12.25       4.54
O      -6.25      14.34      10.47
H      -4.57      15.70       7.06
H      -4.31      10.89       7.95
H      -5.11      13.64       5.17
H      -3.78      12.95       9.85
C      -4.82      13.50       6.21
C      -4.07      13.09       8.80
C      -4.52      14.62       7.25
C      -4.37      11.96       7.77
C      -5.34      13.87       8.35
C      -3.55      12.72       6.67
C      -5.67      12.73       7.29
C      -3.22      13.86       7.73
C      -2.51      12.09       5.80
C      -6.38      14.50       9.22
C      -6.96      12.15       7.09
C      -1.93      14.44       7.93
N      -8.01      11.67       6.92
N      -0.87      14.92       8.09
O      -1.59      11.47       6.42
O      -7.30      15.12       8.60
