20

C      12.24       1.80       4.12
H      15.03       0.97       3.98
C      10.16       2.09       3.09
H      16.33       0.80       6.27
C      10.87       1.96       4.31
H       9.08       2.21       3.01
H      10.40       1.95       5.29
S      12.65       1.85       2.44
O      13.87       1.75       9.49
C      10.66       2.09       0.56
S      12.90       1.87       6.79
C      14.82       1.42       8.70
C      14.50       1.44       7.27
O       9.43       2.18       0.23
C      13.27       1.62       5.12
O      16.00       1.06       9.05
C      10.99       2.04       1.99
O      11.64       2.01      -0.25
C      14.59       1.22       4.95
C      15.29       1.12       6.17
