60

H      -6.83      11.37      11.96
H      -9.24       8.69      10.87
H     -11.73       7.17      17.04
H     -11.62      10.40      14.16
H     -12.23      13.24      15.67
H     -11.65      11.73      16.41
H     -14.16      13.26      17.29
H     -13.53      11.81      18.06
H      -8.15       9.55      15.66
H     -11.40      13.06      18.67
C      -8.26       7.57      12.45
C     -11.88       8.82      15.64
C     -10.18       7.12      15.56
H     -12.84      13.83      19.35
C     -11.29       7.67      16.18
C     -11.21       9.48      14.57
H     -12.06      14.52      17.92
C     -10.08       8.94      13.99
C      -9.57       7.69      14.44
C      -8.39       7.20      13.73
C      -8.85       8.62      11.89
C      -9.28       9.72      12.88
C     -14.22       8.46      16.67
C     -13.21       9.25      16.06
C     -12.54      12.35      16.22
C     -13.23      12.72      17.52
C     -12.33      13.58      18.41
C      -6.97      11.00      12.97
C      -7.63      10.07      14.86
C      -9.89      12.01      12.13
C     -10.33      12.79      13.36
H     -10.45      12.36      11.24
H      -8.83      12.20      11.92
H     -11.41      12.63      13.50
H      -9.82      12.39      14.24
C     -14.15       6.04      16.65
C     -13.59       4.99      17.60
N     -15.19      10.34      16.08
C     -10.03      14.28      13.22
H      -8.95      14.46      13.13
H     -10.38      14.85      14.09
H     -10.51      14.71      12.32
N     -15.41       9.10      16.65
H     -13.54       6.11      15.73
N      -5.99      11.14      13.88
N      -6.39      10.53      15.05
H     -15.19       5.84      16.38
H     -12.55       5.25      17.83
H     -14.15       5.07      18.55
H     -14.71       3.21      17.00
O     -13.42      11.64      15.30
H     -13.13       2.88      17.74
H     -13.21       3.48      16.07
O     -10.18      10.61      12.20
O     -14.08       7.31      17.36
C     -13.89      10.45      15.76
C     -13.67       3.56      17.07
F      -7.43       6.56      14.46
F      -9.67       5.96      16.08
C      -8.06      10.33      13.55
