12

C       4.53      -1.61       8.78
C       3.51      -1.67       9.75
C       2.01      -2.39       8.16
O       6.10      -0.43      10.07
C       4.18      -2.00       7.49
O       6.85      -1.63       8.29
H       3.70      -1.42      10.79
H       1.00      -2.67       7.89
H       4.93      -2.01       6.70
N       2.94      -2.39       7.18
N       2.26      -2.06       9.43
C       5.95      -1.21       9.04
