20

C      -3.55       0.20      14.97
C       0.33       0.59      14.91
C      -2.22       0.23      14.84
C      -0.99       0.38      14.82
H       3.67       2.67      14.06
H      -6.84      -0.90      17.05
H       3.33      -0.56      16.93
H      -6.33       2.62      14.59
N       5.02       1.72      15.40
N      -7.96       0.89      16.78
N       4.92       0.70      16.32
N      -7.80       1.99      15.99
C       3.82       1.91      14.82
C      -6.93       0.05      16.54
C       3.65       0.26      16.30
C      -6.69       1.85      15.27
C       2.89       0.99      15.36
C      -6.06       0.63      15.59
C      -4.76       0.26      15.20
C       1.53       0.81      15.07
