14

C     -11.13       1.14      13.19
H     -11.14      -1.18      11.89
C      -7.10      -1.27       9.57
O     -10.89       2.31      13.65
O     -12.20       0.46      13.36
H      -9.14       1.13      12.31
H      -9.30      -2.32      10.67
H      -8.01       0.47      10.50
O      -6.05      -0.58       9.37
C     -10.21      -0.64      11.74
O      -7.32      -2.47       9.18
C     -10.06       0.55      12.37
C      -9.20      -1.25      10.89
C      -8.16      -0.60      10.35
