48

C       4.93      -5.57      14.57
C       5.15      -6.72      15.48
C       5.96      -7.80      15.10
C       6.19      -8.85      16.00
C       5.62      -8.83      17.29
C       4.82      -7.73      17.65
C       4.58      -6.70      16.76
C       5.78      -9.96      18.23
H       6.41      -7.81      14.11
H       6.83      -9.68      15.70
H       4.35      -7.71      18.63
H       3.95      -5.85      17.04
C       5.79     -11.28      17.76
H       5.74     -11.46      16.68
H       6.41     -17.01      18.84
H       6.83     -14.70      19.66
H       4.35     -13.14      16.49
H       3.95     -15.45      15.68
H       5.74     -12.96      20.71
C       4.93     -17.74      16.67
C       5.15     -16.37      17.21
C       5.96     -16.15      18.34
C       6.19     -14.86      18.79
C       5.62     -13.75      18.13
C       4.82     -13.98      17.00
C       4.58     -15.27      16.55
C       5.78     -12.37      18.64
C       5.79     -12.12      20.02
H       6.41      -8.32      24.44
H       6.83      -8.76      22.03
H       4.35     -12.28      22.27
H       3.95     -11.83      24.67
H       5.74      -8.72      19.99
C       4.93      -9.83      26.16
C       5.15     -10.04      24.70
C       5.96      -9.18      23.95
C       6.19      -9.43      22.60
C       5.62     -10.56      21.97
C       4.82     -11.42      22.74
C       4.58     -11.17      24.08
C       5.78     -10.81      20.52
C       5.79      -9.74      19.61
O       5.51      -5.57      13.43
O       4.18      -4.63      15.02
O       5.51     -18.72      17.25
O       4.18     -17.82      15.63
O       5.51      -8.84      26.72
O       4.18     -10.69      26.75
