28

O      10.39       6.59      12.50
O      11.61       7.02      14.38
O      16.46       9.88      10.33
O      15.22       9.28       8.52
H      13.53       5.12      13.09
H      14.11       4.73      11.46
H      12.38       4.93      11.76
H      16.47       7.12      10.18
H      15.76       5.63      10.82
H      15.26       6.24       9.24
H      13.41      11.26       9.84
H      12.77      11.67      11.44
H      14.51      11.48      11.21
H      10.38       9.39      12.55
H      11.31      10.87      12.36
H      11.51       9.88      13.82
C      11.41       7.04      13.13
C      12.49       7.65      12.28
C      13.46       6.80      11.72
C      13.38       5.32      12.02
C      14.45       7.36      10.90
C      15.54       6.54      10.26
C      14.41       8.75      10.68
C      15.45       9.35       9.77
C      13.45       9.61      11.24
C      13.53      11.08      10.92
C      12.46       9.04      12.06
C      11.36       9.84      12.73
