10

O       5.07       7.09      18.05
C       3.58      10.13      13.16
C       3.68       9.49      14.20
C       3.53      10.86      11.92
C       3.88       8.14      16.37
C       3.78       8.78      15.34
C       3.92       7.40      17.61
O       2.79       7.17      18.15
O       4.66      11.11      11.39
O       2.38      11.17      11.47
