39

H       1.49       9.38       6.50
H      -0.61      10.73       8.23
H       1.31       8.10      10.57
H      -0.71      10.15       6.56
H      -0.76       6.47       7.63
H      -0.28       7.53       6.30
H       1.92       7.09       7.03
H       1.38       6.52       8.62
H      -1.25       9.22      10.15
H      -0.89       7.50       9.96
H       1.02       9.81      10.26
H       3.74      13.08       8.49
H       2.21      13.88       8.07
H       2.71      13.75       9.78
H       0.95      12.04       9.28
H       2.48      11.27       9.68
H       3.02      10.96       7.29
H       1.55      11.79       6.81
C       1.23       9.79       7.50
C       1.66       8.67       8.51
C       0.88       8.80       9.85
C      -0.62       8.51       9.61
C       3.08       8.71       8.76
C      -2.36       8.58       7.90
C      -3.58       8.59       7.84
C      -5.02       8.68       7.93
C       5.73       8.82       8.99
C      -0.30       9.92       7.56
C      -0.22       7.40       7.39
C       1.25       7.32       7.87
C       4.28       8.77       8.95
C      -0.92       8.59       8.08
C       1.98      11.13       7.58
C       1.98      11.88       8.92
C       2.70      13.22       8.81
O      -5.48       9.84       8.19
O      -5.68       7.61       7.77
O       6.26       9.95       8.76
O       6.33       7.72       9.22
