30

H       6.53      10.43      15.74
H       5.84       6.29      20.17
H       6.48      10.41      13.23
H       5.89       6.31      22.68
H       5.74       6.18      13.28
H       6.62      10.53      22.63
H       5.58       5.24      15.34
H       6.78      11.48      20.56
C       6.29       8.45      24.30
C       6.07       8.27      11.61
C       6.17       8.34      17.34
C       6.19       8.38      18.56
C       6.35       9.50      15.19
C       6.01       7.21      20.72
C       6.33       9.50      13.80
C       6.04       7.22      22.11
C       6.10       8.30      13.11
C       6.26       8.42      22.80
C       5.91       7.11      13.83
C       6.46       9.60      22.08
C       5.93       7.12      15.22
C       6.44       9.60      20.68
C       6.15       8.32      15.93
C       6.22       8.39      19.97
O       6.41       9.59      24.85
O       5.96       7.12      11.05
O       6.20       7.33      24.90
O       6.17       9.38      11.01
O       5.73       5.98      15.96
O       6.63      10.74      19.95
