28

C      -2.39      13.19       3.40
H       0.92      12.92       7.24
H      -0.16      14.35       7.42
H       0.09      12.07       9.44
C      -4.37       9.74       9.74
C      -3.40      10.74       9.54
C      -0.25      13.25       3.96
H      -2.46      11.98      11.17
N      -4.63       9.61      11.05
H       0.73      13.15       4.42
H      -3.49      10.99       4.91
N      -0.39      13.88       2.77
H      -3.47      13.08       3.35
H      -4.30      10.19       7.04
N      -1.72      13.84       2.44
H      -4.89       9.12       9.01
N      -3.87      10.51      11.75
Cl      -1.09      14.01      10.06
C      -1.50      12.79       4.42
C      -1.72      12.02       8.14
C      -2.84      11.20       8.28
C      -3.43      10.84       7.04
C      -2.97      11.31       5.81
C      -1.86      12.17       5.69
C      -1.24      12.47       6.90
C      -0.09      13.26       7.51
C      -3.13      11.19      10.85
C      -0.61      12.71       8.90
