30

H       8.47       4.33       0.85
H       2.85       2.34      -3.32
H       1.57       3.47      -3.04
H       4.63       5.49       2.33
H       0.10       7.19      -1.32
H       3.15       6.66       1.65
H       0.95       7.59       1.00
C       1.65       5.80      -1.82
C       1.29       5.91      -3.28
C       7.07       4.98       3.17
C       3.35       5.39      -0.10
C       6.82       4.09      -0.52
C       6.57       4.81       1.77
C       0.98       6.66      -0.95
C       1.47       6.90       0.34
C       2.68       6.33       0.72
C       2.78       5.06      -1.35
C       4.66       4.87       0.26
C       5.41       4.16      -0.74
C       4.66       3.57      -1.80
C       3.33       3.91      -2.06
C       5.23       5.09       1.52
C       7.39       4.40       0.71
Br       5.29       2.00      -2.71
Br       8.03       3.80      -1.97
N       2.54       3.20      -2.88
O       0.07       6.13      -3.58
O       2.24       5.82      -4.12
O       6.20       4.74       4.07
O       8.28       5.33       3.36
