22

H       3.75      11.12       9.89
H       6.13      19.86       7.33
H       3.73      13.65       9.90
H       6.19      17.33       7.35
H       3.09      17.44      10.35
H       6.84      13.53       6.91
H       3.15      19.97      10.20
H       6.74      10.99       7.04
C       4.41      11.70       9.26
C       5.51      17.89       7.99
C       4.40      13.09       9.26
C       4.64      17.21       8.86
C       5.29      13.76       8.40
C       3.77      17.95       9.67
C       6.15      13.01       7.58
C       3.80      19.34       9.59
C       6.09      11.62       7.65
C       5.48      19.27       7.98
N       4.64      19.98       8.76
N       5.24      10.99       8.47
N       4.55      15.80       8.98
N       5.39      15.17       8.28
