19

C      17.72       9.21      28.64
C      14.51      10.92      28.36
C      17.82       9.23      27.25
C      14.40      10.90      29.74
C      15.72      10.31      27.95
C      16.50       9.83      29.02
H      13.75      11.35      27.72
C      18.71       8.64      29.61
S      16.48       9.98      26.44
S      15.75      10.15      30.54
H      18.87       7.57      29.42
H      18.36       8.77      30.64
H      19.69       9.12      29.50
C      18.91       8.70      26.42
O      19.89       8.14      27.03
O      18.78       8.83      25.15
C      13.30      11.44      30.55
O      13.41      11.32      31.82
O      12.33      11.99      29.91
