31

N       4.84       8.53       0.27
H       5.29      10.66       4.26
N       4.62       7.43      -0.32
H       3.56       5.72      -1.94
H       5.32       6.37       4.33
H       4.91       6.31       1.85
O       5.84       9.63       6.47
O       5.97       7.37       6.39
O       5.26       8.64      -6.52
O       5.27       6.37      -6.63
H       6.26       9.17      -4.28
H       6.05       9.22      -1.78
H       4.90      10.61       1.77
O       2.58       5.82      -5.48
O       3.51       4.23      -4.17
H       2.83       3.71      -4.66
C       5.74       8.51       5.87
C       5.34       8.51       4.43
C       5.20       7.29       3.76
C       4.98       7.25       2.39
C       4.89       8.46       1.67
C       4.98       9.69       2.35
C       5.19       9.71       3.72
C       5.54       8.46      -2.38
C       5.66       8.43      -3.76
C       4.77       7.49      -1.72
C       5.01       7.45      -4.52
C       4.24       6.47      -3.86
C       4.15       6.48      -2.47
C       5.19       7.48      -6.01
C       3.38       5.51      -4.62
