19

C      16.15       4.49       2.88
H      12.26       1.36       4.96
H      14.29       3.08       1.58
H      13.93       2.44       6.50
H      17.22       2.94       2.49
O      15.72       3.96       7.09
C      16.04       3.94       5.86
O      17.13       4.36       5.35
C      12.22       1.50       2.25
O      11.25       0.86       2.79
O      12.44       1.63       1.00
O      17.22       3.89       2.27
O      15.99       5.68       2.80
C      15.04       3.36       4.91
C      13.19       2.15       3.18
C      15.15       3.55       3.51
C      13.08       1.97       4.57
C      14.23       2.94       2.66
C      14.00       2.57       5.42
