16

C      15.40       9.98      28.49
C      16.80      10.16      28.48
H      13.97       8.50      29.36
O      14.93       6.45      30.82
O      17.22       6.50      30.91
C      16.10      11.99      27.22
S      14.59      11.22      27.61
S      17.61       8.92      29.36
F      18.47      11.67      27.62
C      14.99       8.84      29.21
C      16.10      13.21      26.40
C      16.07       6.95      30.55
C      17.18      11.30      27.76
O      17.23      13.73      26.14
O      14.95      13.63      26.03
C      16.08       8.18      29.74
