20

H       0.98       8.57       7.81
H      -0.91       5.87      10.88
H       0.98       6.94      11.82
H      -0.91       9.64       8.75
H       3.49       8.53       7.90
H      -3.43       5.96      10.83
H       3.49       6.98      11.73
H      -3.43       9.56       8.81
N       3.56       7.76       9.82
N      -3.49       7.76       9.82
C       1.49       8.22       8.71
C      -1.43       6.72      10.42
C       1.49       7.29      10.92
C      -1.43       8.79       9.21
C       2.88       8.20       8.74
C      -2.82       6.75      10.39
C       2.88       7.31      10.89
C      -2.82       8.76       9.24
C       0.77       7.75       9.82
C      -0.70       7.76       9.82
