26

O      13.24      -4.99       8.88
H      12.93      -4.88      11.68
O      14.60      -3.17       9.00
O      12.39      -1.89       7.86
H      12.04       0.70       7.97
H      11.66       2.03      10.08
H      11.47       0.88      12.24
H      11.99      -3.71      13.68
H      10.56      -1.29       7.01
H      10.50      -2.80       8.00
H      11.31      -2.80       6.39
C      12.32      -1.82      10.28
C      12.73      -3.18      10.40
C      12.61      -3.84      11.61
C      12.12      -3.17      12.74
C      11.79      -1.83      12.68
C      13.55      -3.82       9.32
C      11.10      -1.21      13.85
C      12.27      -1.15       9.02
C      12.05       0.21       8.95
C      11.81       0.95      10.13
C      11.71       0.31      11.35
C      11.93      -1.09      11.45
C      11.10      -2.21       7.29
O      11.47      -1.50      15.05
O      10.12      -0.45      13.57
