35

H       8.79       6.45       0.97
H       7.69       6.37       4.27
H       1.73       5.28       2.49
H       9.11       5.97      -2.69
H       3.51       5.34       3.44
H       2.07       4.77      -1.14
H       3.16       5.01      -3.32
H       7.35       5.86      -3.63
C       4.11       5.22      -2.83
C       5.25       5.45      -3.60
C       5.15       5.48      -5.09
C       6.48       5.70      -2.98
C       6.69       6.01       1.27
C       5.61       5.88       4.93
C       6.74       6.10       2.68
C       5.57       5.85       3.44
C       4.37       5.53       2.80
C       4.27       5.45       1.40
C       5.45       5.68       0.63
C       1.77       4.89       1.45
C       9.10       6.29      -1.62
C       3.04       5.10       0.72
C       3.02       5.00      -0.65
C       4.18       5.25      -1.44
C       5.42       5.57      -0.79
C       6.59       5.78      -1.58
C       7.83       6.11      -0.89
C       7.85       6.22       0.48
O       0.78       4.34       0.97
O      10.13       6.74      -1.12
O       6.21       5.29      -5.76
O       4.00       5.72      -5.59
O       6.76       6.11       5.48
O       4.54       5.69       5.58
O       7.90       6.42       3.27
