30

H      13.26       6.06       5.76
H      13.66       6.11       8.07
H      11.64       3.00       8.52
H      11.56       4.76       8.50
H      11.15       4.72       6.19
H      11.22       2.96       6.21
H      15.31       2.75       7.85
H      13.85       1.81       8.15
H      14.89       2.69       5.55
H      15.21       5.30       7.81
H      14.80       5.23       5.51
C      11.99       3.43       1.82
H      13.42       1.76       5.84
O      12.36       2.33       1.34
O      11.14       4.25       1.29
O      14.19       5.58      12.70
O      15.34       3.62      12.76
C      14.55       4.48      12.21
C      14.13       5.23       7.60
C      12.04       3.89       8.02
C      11.76       3.87       6.50
C      12.50       3.77       3.12
C      13.56       3.96       8.28
C      13.86       5.20       6.08
C      13.10       3.90       5.71
C      13.95       2.68       6.13
C      14.23       2.71       7.65
C      12.80       3.86       4.29
C      13.83       4.03       9.70
C      14.09       4.16      10.88
