44

O       8.39      16.36      30.91
O       8.83      18.51      30.59
O       8.29      19.00      27.28
O       8.73      16.86      27.69
O       2.81      19.04      30.99
O       2.42      16.88      30.70
O       2.79      16.39      27.48
O       2.33      18.52      27.84
O       2.05      19.02      24.84
O       1.62      16.89      24.42
O       1.96      16.43      21.18
O       1.51      18.57      21.54
O       7.57      16.43      24.59
O       8.01      18.58      24.28
O       7.52      19.12      21.13
O       7.92      16.96      21.39
C       4.72      17.80      19.97
C       5.62      17.71      32.14
C       5.61      17.72      30.63
C       4.40      17.77      29.91
C       4.37      17.70      28.52
C       5.57      17.76      27.77
C       6.77      17.78      28.50
C       6.79      17.67      29.89
C       3.57      17.81      23.61
C       4.78      17.79      24.34
C       5.97      17.74      23.59
C       5.94      17.83      22.20
C       4.73      17.79      21.48
C       3.55      17.73      22.23
N       5.72      17.78      26.38
N       4.63      17.80      25.73
N       8.12      17.50      30.54
N       8.05      17.89      27.75
N       3.10      17.91      30.61
N       3.05      17.53      27.87
N       2.30      17.92      24.37
N       2.22      17.56      21.58
N       7.30      17.57      24.23
N       7.24      17.98      21.49
O       3.58      17.91      19.41
O       5.84      17.69      19.39
O       6.76      17.82      32.70
O       4.50      17.61      32.72
