32

H       0.29      -3.01      22.02
H      -3.62       5.46      15.04
H       0.38      -1.10      20.39
H      -3.70       3.54      16.67
H      -3.92      -0.89      20.42
H       0.59       3.34      16.62
H      -3.99      -2.81      22.05
H       0.66       5.26      14.99
C      -1.45       6.58      13.92
C      -1.89      -4.13      23.12
C      -0.62      -2.54      21.66
C      -2.71       4.98      15.39
C      -0.57      -1.48      20.76
C      -2.75       3.92      16.29
C      -1.77      -0.88      20.31
C      -1.56       3.33      16.74
C      -3.00      -1.36      20.78
C      -0.32       3.81      16.27
C      -3.04      -2.42      21.68
C      -0.29       4.87      15.37
C      -1.85      -3.01      22.13
C      -1.48       5.46      14.92
C      -1.61       2.21      17.69
C      -1.71       0.24      19.36
N      -2.88       0.79      18.96
N      -0.44       1.65      18.09
N      -2.83       1.79      18.11
N      -0.49       0.65      18.94
O      -0.32       6.98      13.52
O      -3.03      -4.53      23.52
O      -2.59       7.03      13.55
O      -0.76      -4.59      23.51
