36

H       6.10       9.70       7.44
H       3.71       7.68       6.53
H       2.11       8.18       7.13
H       2.54       8.41       5.41
H       2.65      10.58       6.68
H       4.24      10.12       6.03
H      -0.19      10.55       7.91
H       3.22      10.21      11.45
H      -2.97       8.66      11.58
H      -0.47       8.84      11.84
C      -4.47       9.46       9.54
C       6.06       9.90       9.57
C       5.46       9.83       8.31
C       4.08       9.93       8.14
C       3.28      10.03       9.30
C       3.87      10.11      10.58
C       5.25      10.07      10.72
C      -0.81      10.15       8.71
C      -2.20      10.08       8.57
C      -0.20       9.71       9.89
C       7.55       9.80       9.63
C      -2.98       9.53       9.62
C      -2.35       9.08      10.79
C      -0.97       9.18      10.93
C      -2.76      10.52       7.33
C       5.79      10.13      12.05
C       3.47       9.85       6.76
C       2.93       8.45       6.44
N       6.15      10.15      13.16
N       1.89      10.03       9.10
N       1.20       9.72      10.12
N      -3.10      10.88       6.27
O      -5.04      10.22       8.70
O       8.14      10.42      10.58
O      -5.05       8.65      10.35
O       8.09       9.12       8.70
