50

H      12.76       7.64      21.65
H      13.27       7.63      24.13
H       9.81       1.90      24.82
H       9.31       1.90      22.34
H      10.41       5.37      28.72
H      11.03       5.38      31.15
H      14.96       3.98      30.16
H      14.37       4.03      27.73
H      11.92       4.55      15.36
H      12.40       4.56      17.82
H       7.73       4.98      16.15
H       8.19       4.98      18.62
C      11.23       3.68      26.19
C      11.41       5.09      29.04
C      13.39       4.71      32.25
C      11.75       5.09      30.39
C      13.04       4.70      30.80
C      13.98       4.31      29.84
C      13.64       4.32      28.48
C      12.36       4.72      28.10
C      11.38       4.64      17.45
C      11.12       4.63      16.08
C      12.39       6.84      22.30
C       9.80       4.75      15.61
C       8.75       4.88      16.53
C       9.01       4.88      17.90
C      10.32       4.76      18.35
C      12.68       6.84      23.67
C       9.52       4.75      14.14
C      12.21       5.81      24.49
C      10.07       3.70      20.53
C      11.36       5.84      20.27
C      11.64       5.82      21.73
C      11.14       4.77      22.54
C      10.37       3.72      21.98
C      11.43       4.77      23.93
C      10.93       3.71      24.74
C      10.18       2.69      24.17
C       9.90       2.70      22.80
C      12.53       5.82      25.93
N      10.59       4.77      19.76
N      12.03       4.74      26.69
O      10.51       4.56      13.37
O       8.31       4.94      13.77
O       9.42       2.80      20.01
O      11.76       6.74      19.54
O      13.20       6.70      26.46
O      10.83       2.79      26.94
O      14.42       4.04      32.61
O      12.64       5.39      33.02
