24

H       4.56       3.50      14.50
H       7.74       3.41      11.84
H       7.61      -3.45      11.88
H       4.44      -3.38      14.56
F       3.30      -1.27      15.54
F       3.35       1.45      15.52
F       8.81      -1.41      10.86
F       8.88       1.31      10.87
C       5.24       2.87      13.93
C       5.17       1.47      13.97
C       4.23       0.75      14.77
C       7.03       2.83      12.42
C       7.04       1.43      12.39
C       7.97       0.66      11.61
C       6.93      -2.83      12.45
C       6.98      -1.43      12.40
C       7.93      -0.71      11.61
C       5.14      -2.79      13.97
C       5.12      -1.39      13.99
N       6.15       3.51      13.17
C       6.09       0.73      13.18
C       6.06      -0.69      13.19
N       6.03      -3.46      13.22
C       4.20      -0.62      14.78
