50

C      11.08       1.88      16.24
C      10.32       3.04      16.90
C      11.27       4.04      17.57
N      10.37       0.56      11.34
N       8.25      -0.56      11.34
N      10.36       0.58      10.03
N       8.26      -0.57      10.03
O       8.17      -0.06       3.05
O      10.45       0.06       3.05
O       8.18       0.14      18.32
O      10.44      -0.14      18.32
H       7.81      -1.53      13.60
H      10.82       1.53      13.60
H       7.21      -0.47       7.77
H      11.41       0.48       7.77
H       7.21      -0.44       5.27
H      11.41       0.44       5.27
H       6.75      -3.54      18.35
H       6.66      -4.47      16.84
H       7.91      -4.86      18.04
H       8.92      -3.54      16.15
H       9.01      -2.64      17.65
H       6.92      -1.37      16.99
H       6.86      -2.29      15.49
H      11.87       3.54      18.35
H      11.96       4.48      16.84
H      10.71       4.86      18.04
H       9.71       3.55      16.14
H       9.61       2.64      17.65
H      11.70       1.37      16.99
H      11.77       2.30      15.49
C       9.31      -0.00       3.63
C       9.31       0.00       9.39
C       9.31       0.00      11.98
C       8.12      -0.27       7.21
C      10.50       0.27       7.21
C       8.12      -0.25       5.83
C      10.50       0.25       5.83
C       9.31      -0.00       5.12
C       9.31      -0.00       7.92
C       9.31       0.00      17.74
C       8.44      -0.88      15.55
C      10.18       0.88      15.55
C       8.46      -0.86      14.15
C      10.16       0.86      14.15
C       9.31       0.00      13.45
C       9.31       0.00      16.24
C       7.54      -1.87      16.24
C       8.30      -3.04      16.90
C       7.36      -4.03      17.57
