16

C      18.59       9.82       3.95
C      18.45      13.39       4.20
C      18.51       9.68       5.33
C      18.53      13.53       2.82
C      18.47      12.04       4.62
C      18.57      11.16       3.53
C      18.52       8.45       6.14
O      18.58       7.35       5.51
O      18.46       8.62       7.41
S      18.42      11.22       6.14
S      18.63      11.98       2.02
O      18.64      14.58       0.75
O      18.42      15.86       2.63
C      18.53      14.75       2.01
F      18.67       8.80       3.08
F      18.36      14.41       5.07
