30

C       7.39       4.36      14.83
C       6.39       5.34      14.82
C       5.86       5.85      13.59
C       7.39       4.33      17.26
C       6.41       5.33      17.30
C       5.87       5.88      18.51
C       3.40       8.36      17.28
C       4.39       7.36      17.29
C       4.91       6.85      18.52
C       3.35       8.34      14.85
C       4.35       7.35      14.82
C       4.89       6.81      13.60
C       7.88       3.86      16.04
C       5.89       5.84      16.06
C       2.89       8.84      16.07
C       4.88       6.85      16.05
Br       4.23       7.44      11.92
Br       6.52       5.24      20.19
H       7.79       3.97      13.89
H       6.25       5.46      12.65
H       7.79       3.92      18.18
H       3.03       8.79      18.21
H       4.53       7.25      19.46
H       2.93       8.73      13.93
O       9.13       2.17      17.13
O       9.59       2.62      14.95
O       1.58      10.46      17.19
O       1.27      10.16      14.96
C       8.94       2.80      16.05
C       1.83       9.90      16.07
