52

C       2.43      12.04       3.16
C       3.23      12.16       4.45
C       3.39      10.80       5.14
C      -2.29      11.46      -3.47
C      -3.49      12.33      -3.22
C      -3.56      13.51      -4.19
N       0.89      12.71      -0.13
N      -0.99      10.77       0.38
N       0.81      11.66      -0.94
N      -0.90      11.82       1.19
H       2.92      11.33       2.47
H       1.40      11.69       3.36
H       4.22      12.58       4.20
H       2.75      12.88       5.13
O       1.42      17.68       4.93
H       2.42      10.38       5.43
H       4.00      10.90       6.05
H       3.89      10.08       4.48
O      -1.34       6.06      -5.01
O      -0.83      17.53       5.13
O       0.92       6.09      -5.03
H      -2.32      10.99      -4.47
H      -1.35      12.03      -3.39
H      -4.40      11.72      -3.29
H      -3.46      12.70      -2.18
H      -2.68      14.16      -4.10
H      -4.45      14.12      -3.99
H      -3.62      13.17      -5.24
O       2.38      13.30       2.44
O      -2.28      10.42      -2.45
F      -1.88      16.76       2.79
F       1.82       6.73      -2.57
C      -0.21       6.47      -4.61
C       0.29      17.20       4.63
F      -1.99      14.70       1.10
F       1.83       8.69      -0.74
F       2.42      15.30       4.28
F      -2.25       8.49      -4.39
C      -0.86      15.90       2.79
C       0.82       7.63      -2.61
C      -0.92      14.82       1.91
C       0.82       8.64      -1.65
C       0.13      13.91       1.82
C      -0.20       9.59      -1.60
C       1.29      14.10       2.60
C      -1.26       9.52      -2.52
C       1.32      15.18       3.49
C      -1.24       8.50      -3.48
C       0.26      16.09       3.62
C      -0.21       7.54      -3.56
C      -0.13      10.73      -0.65
C       0.04      12.75       0.91
