19

H       0.30       4.76       3.74
H      -3.57       3.34       2.54
H       0.18       3.31       5.77
H      -4.62       1.60       3.58
H      -3.69       0.51       4.64
H      -4.65       1.79       5.35
C      -1.74       1.68       6.55
C      -1.61       5.02       1.83
C      -1.75       2.50       5.30
C      -1.65       4.14       3.03
C      -2.83       2.47       4.38
C      -0.57       4.13       3.93
C      -2.75       3.32       3.27
C      -0.64       3.32       5.05
C      -4.01       1.55       4.49
O      -2.86       1.37       7.06
O      -0.60       1.37       7.03
O      -2.70       5.16       1.18
O      -0.50       5.56       1.53
