36

N      -0.17      11.97      13.48
N       2.40      20.45       9.60
N       7.70      16.51      16.61
N       4.09      17.44      13.24
N       2.17      16.29      12.43
N       3.37      15.44      14.30
H      -0.84      12.53      11.60
H       0.65      14.56      11.47
H       2.13      13.54      15.39
H       0.59      11.53      15.36
C      -0.16      12.79      12.41
C       0.65      13.91      12.35
C       1.48      14.20      13.44
C       1.48      13.35      14.54
C       0.63      12.24      14.53
H       3.67      21.63      10.73
H       4.09      19.82      12.45
H       1.43      17.27      10.22
H       1.18      19.14       8.55
H       8.04      18.45      15.96
H       5.99      18.50      14.48
C       3.21      20.64      10.66
C       3.44      19.64      11.60
C       1.95      18.22      10.35
C       1.79      19.26       9.44
H       5.19      14.44      15.69
H       7.26      14.56      17.14
C       7.37      17.59      15.87
C       6.25      17.61      15.05
C       5.44      16.47      14.99
C       5.80      15.34      15.73
C       6.93      15.40      16.53
C       4.23      16.45      14.14
C       3.02      17.33      12.43
C       2.38      15.38      13.39
C       2.80      18.41      11.45
