13

C       2.57       9.47      16.55
O       5.21      10.52      18.87
C       2.57       9.47      15.14
S       4.83      10.48      15.85
O       3.06       9.90      19.31
O       5.21      10.52      12.82
O       3.06       9.90      12.38
H       1.76       9.10      17.18
C       4.03      10.16      18.52
H       1.76       9.10      14.51
C       3.74      10.00      17.08
C       4.03      10.16      13.17
C       3.74      10.00      14.61
