49

N       2.07       9.73      10.11
O       2.97      16.06       9.52
O       1.04      16.04      10.71
O       1.04       6.05      15.27
H       3.19       6.14      12.77
H       3.23       7.35      10.62
O       2.97       7.07      15.88
H       0.92      10.52      12.39
H       0.92       7.35       9.65
O       1.04       7.09       4.34
H       0.92      11.31       8.28
H       3.19      13.82      11.88
H       3.23      11.36      11.91
O       2.97       6.05       4.92
H       3.19       9.22       5.67
H       3.23      10.47       7.79
H       1.11      10.56      15.02
H       0.86       8.99      15.81
H      -0.36       9.63      14.70
H       1.11       5.05       8.38
H       0.86       5.16       6.62
H      -0.36       5.79       7.72
H       1.11      13.56       6.92
H       0.86      15.03       7.90
H      -0.36      13.76       7.89
C       2.01      15.46      10.10
C       2.01       6.86      15.08
C       2.01       6.85       5.15
C       2.67       7.09      12.68
C       2.70       7.78      11.47
C       2.05       9.02      11.34
C       1.41       9.55      12.47
C       1.39       8.89      13.70
C       2.01       7.63      13.79
C       1.41       7.77       8.78
C       1.39       7.04       7.59
C       2.01       7.58       6.45
C       2.67       8.82       6.54
C       2.70       9.52       7.74
C       2.05       9.01       8.88
C       1.41      11.86       9.08
C       1.39      13.25       9.04
C       2.01      13.96      10.08
C       2.67      13.27      11.11
C       2.70      11.88      11.12
C       2.05      11.15      10.10
C       0.72       9.55      14.87
C       0.72       5.69       7.57
C       0.72      13.94       7.88
