36

C       4.08       2.92      10.41
C       1.82      -3.40      18.22
C       4.07       1.97      11.41
C       1.80      -2.46      17.20
C       2.90       1.71      12.15
C       2.95      -2.20      16.43
C       1.73       2.43      11.83
C       4.13      -2.91      16.72
H       4.99       3.13       9.84
C       1.73       3.36      10.80
H       4.97       1.39      11.62
C       2.91       3.63      10.09
H       0.82       2.27      12.42
C       1.77      -0.07      13.53
H       0.83       3.92      10.55
C       4.05       0.52      14.04
H       0.88       0.03      12.90
C       2.90       0.72      13.24
C       1.78      -1.01      14.55
H       0.91      -1.63      14.72
C       2.93      -1.20      15.35
C       4.06      -0.41      15.06
H       5.02      -2.76      16.11
H       5.07      -4.40      17.98
H       4.95      -0.51      15.69
H       4.93       1.15      13.87
H       0.93      -3.60      18.82
O       4.19      -5.45      20.03
O       1.82       4.95       8.47
C       4.16      -3.84      17.75
H       0.89      -1.88      17.02
O       4.06       5.14       8.71
O       1.93      -5.48      20.09
C       3.00      -4.10      18.51
C       3.04      -5.09      19.62
C       2.93       4.65       9.01
