24

N       5.21      10.72       8.94
N       4.58      20.10       8.66
H       3.73      10.87       7.50
H       3.66      13.35       7.53
H       6.78      13.23      10.53
H       6.70      10.73      10.37
H       3.00      17.59       7.07
H       6.14      17.46      10.05
H       6.08      19.95      10.07
H       3.07      20.09       7.24
H       6.00      15.36       9.86
H       3.78      15.46       7.73
C       4.38      11.44       8.16
C       4.36      12.82       8.18
C       5.23      13.52       9.04
C       6.09      12.75       9.85
C       6.05      11.36       9.77
C       5.27      14.97       9.15
C       4.51      15.84       8.45
C       3.70      18.07       7.75
C       4.56      17.29       8.55
C       5.44      17.99       9.41
C       5.42      19.38       9.43
C       3.73      19.45       7.84
