31

C      -3.54       1.95       9.64
C      -3.32       0.09       8.45
H      -2.56      -1.98      10.25
C      -3.21       0.58       9.76
C      -4.72      -2.62      15.73
H      -3.58       2.72      10.40
H      -3.17      -0.92       8.07
C      -4.84      -5.22      13.09
C      -5.74      -4.78      11.92
H      -4.52      -1.70      16.26
C      -5.67      -5.76      10.75
N      -3.84       2.22       8.35
H      -3.32      -3.40      11.95
H      -4.65      -5.83      10.35
H      -5.98      -6.77      11.05
H      -6.32      -5.45       9.92
H      -6.78      -4.71      12.29
H      -5.46      -3.77      11.60
H      -3.80      -5.35      12.72
H      -5.16      -6.22      13.43
N      -3.70       1.08       7.63
N      -5.49      -3.58      16.26
N      -5.57      -4.61      15.35
F      -3.30      -0.92      14.13
F      -3.51       0.61      12.07
C      -4.86      -4.29      14.25
C      -4.28      -3.00      14.44
C      -3.21      -2.36      12.25
C      -3.56      -2.14      13.54
C      -2.88      -1.48      11.16
C      -3.11      -0.15      11.00
