36

C       9.45       8.72      17.06
C      10.68       8.57      17.72
C      10.85       8.96      19.04
C       9.79       9.53      19.75
C       8.57       9.71      19.07
C       8.37       9.33      17.74
C       9.07      10.98      21.65
C       9.00      11.26      23.00
C      10.65       9.55      23.45
C      10.67       9.23      22.09
C       9.87       9.93      21.17
C       9.78      10.54      23.92
C       9.62      10.90      25.35
H      11.50       8.11      17.16
H       8.49      11.59      20.95
H       8.34      12.05      23.37
H      11.82       8.82      19.52
H      11.28       8.39      21.75
H      11.27       9.00      24.16
H       7.73      10.16      19.60
C       7.04       9.61      17.17
C       6.87      10.29      15.96
C       5.60      10.61      15.50
C       4.47      10.25      16.24
C       4.62       9.58      17.45
C       5.90       9.26      17.92
O       8.45      11.18      25.73
O      10.68      10.98      26.09
H       7.75      10.58      15.38
H       5.48      11.14      14.55
H       3.47      10.49      15.86
H       3.75       9.29      18.04
H       6.02       8.72      18.86
O      10.41       7.81      15.11
O       8.16       7.78      15.29
C       9.33       8.08      15.72
