24

O       1.81       3.39      14.19
O       8.19      11.08      12.95
O       1.97       5.42      13.21
O       6.23      10.54      13.93
C       6.00       3.02      13.92
C       9.32       7.02      13.22
H       6.54       2.08      14.01
C       4.61       3.07      13.96
H      10.34       6.66      13.14
C       9.02       8.37      13.18
H       4.02       2.17      14.10
C       3.97       4.30      13.81
C       7.69       8.78      13.33
H       9.79       9.12      13.04
H       4.23       6.41      13.54
C       4.74       5.45      13.66
C       6.70       7.81      13.48
H       5.67       8.14      13.60
C       6.13       5.35      13.65
C       7.06       6.47      13.49
C       2.46       4.37      13.75
C       7.34      10.25      13.40
N       6.74       4.13      13.76
N       8.36       6.08      13.38
