24

I       3.71       5.51       8.21
Br       9.66       3.57       5.80
Br       7.05       1.30       7.28
Br       4.42       3.12       5.20
H       6.59       6.96       6.77
C       6.56       3.17      10.72
C       6.67       5.87       6.86
O       7.89       6.36       1.16
O       5.64       6.03       1.14
C       6.88       4.90       5.62
C       5.57       4.92       7.44
C       6.65       4.14       8.28
C       5.78       3.93       6.23
C       6.56       3.67       9.61
C       6.88       3.17       7.05
C       6.73       2.37      11.90
C       6.92       5.26       4.25
O       7.94       2.28      12.32
O       5.72       1.78      12.39
C       7.76       5.10       7.69
C       7.98       4.13       6.47
C       6.86       5.52       3.06
C       6.79       5.99       1.69
I       9.28       5.84       8.93
