28

H      21.12      27.48      15.96
H      21.21      28.51      14.53
H      22.16      28.90      15.97
H      25.98      23.93      13.10
H      26.94      24.32      14.53
H      27.01      25.35      13.09
O      22.76      27.39      11.14
H      23.26      28.09      17.43
H      23.86      26.56      18.07
H      22.22      26.68      17.43
O      21.43      28.33      12.66
H      25.91      26.15      11.63
H      24.27      26.26      10.99
C      22.44      27.61      12.36
H      24.88      24.73      11.63
C      25.70      25.22      16.70
O      26.70      24.48      16.40
O      25.39      25.46      17.92
C      23.28      26.99      13.48
C      24.86      25.83      15.58
C      22.95      27.23      14.85
C      25.19      25.60      14.21
C      23.73      26.66      15.89
C      24.40      26.17      13.17
C      21.79      28.08      15.33
C      26.35      24.75      13.73
C      23.26      27.00      17.29
C      24.87      25.82      11.77
