18

O      11.78      10.42      12.72
O      11.78      10.54      10.48
H      11.78      15.50       9.93
H      11.78      11.88       9.34
H      11.78      13.51       8.55
C      11.78      16.88      12.25
C      11.78      15.39      12.08
C      11.78      14.84      10.80
C      11.78      13.44      10.61
C      11.78      12.59      11.76
C      11.78      13.18      13.04
C      11.78      14.56      13.21
C      11.78      11.11      11.65
H      11.78      12.50      13.89
H      11.78      15.01      14.20
N      11.78      12.91       9.36
O      11.78      17.35      13.44
O      11.78      17.65      11.23
