16

C       2.21      11.43       6.15
H       5.87      11.30       7.33
H       1.17      11.47       5.82
O       2.13      14.44       8.18
C       1.72      13.50       7.40
O       4.91       8.33       4.97
C       5.32       9.27       5.74
O       0.52      13.47       6.96
C       2.67      12.43       7.02
O       6.52       9.30       6.19
C       4.37      10.34       6.13
O       4.58      13.29       8.30
C       4.03      12.39       7.47
O       2.45       9.48       4.85
C       3.01      10.39       5.68
C       4.83      11.34       7.00
