22

C       1.82      19.30       5.29
C       1.79      20.79       5.09
C       2.89      21.50       5.55
C       0.67      21.48       4.51
C      -0.42      20.81       3.89
C      -1.44      21.50       3.28
H       3.74      23.45       5.94
H      -0.43      24.68       3.89
H      -2.25      23.46       2.79
O       2.97      25.66       5.36
O       0.70      25.70       5.42
H       3.74      20.96       5.94
H      -0.43      19.73       3.89
H      -2.25      20.95       2.79
O       2.97      18.75       5.36
O       0.70      18.71       5.42
C       1.82      25.11       5.29
C       1.79      23.62       5.09
C       2.89      22.91       5.55
C       0.67      22.93       4.51
C      -0.42      23.60       3.89
C      -1.44      22.91       3.28
