16

F       1.61       4.17       2.84
F      -1.08       4.22       2.90
N      -1.15       5.57       1.07
N       1.66       5.57       1.04
H      -2.26       7.01      -0.86
H      -1.02       8.33      -2.56
C      -0.47       6.29       0.10
C      -0.45       4.91       1.95
C      -1.17       7.02      -0.88
H       2.74       7.06      -0.86
C       0.97       4.90       1.93
C       0.96       6.29       0.10
C       1.65       7.04      -0.88
C       0.94       7.76      -1.82
C      -0.47       7.75      -1.82
H       1.47       8.34      -2.57
