56

H       4.70      -4.41      17.30
H       4.96      -6.54      17.69
H       4.94      -8.02      16.57
H       4.70      -5.55      14.24
H       5.40      -5.13      11.91
H       4.38      -6.42      10.03
H       2.64      -8.12      10.49
H       4.55     -12.70      11.69
H       3.61     -10.48      12.27
O      -0.73     -13.74       9.57
O       0.83     -15.33       9.70
O       3.32     -14.66      10.55
H      -0.19     -11.72      10.67
H      -0.45      -9.60      10.28
H      -0.43      -8.11      11.40
H      -0.19     -10.59      13.73
O       5.24      -2.39      18.40
O       3.68      -0.81      18.27
O       1.20      -1.48      17.42
H      -0.04      -3.44      16.28
H       0.90      -5.65      15.70
H       1.87      -8.01      17.48
H      -0.89     -11.01      16.06
H       0.13      -9.71      17.94
C       1.77      -2.66      17.13
C       3.14      -2.97      17.42
C       3.65      -4.23      17.08
C       2.88      -5.23      16.48
C       3.46      -6.55      16.17
C       4.51      -7.06      16.85
C       2.84      -7.33      15.06
C       1.86      -8.31      15.33
C       1.27      -9.06      14.24
C       4.24      -6.11      13.42
C       4.63      -5.87      12.12
C       4.05      -6.61      11.05
C       3.09      -7.56      11.31
C       3.51     -12.47      11.47
C       2.98     -11.23      11.79
C       0.44     -14.11       9.91
C       2.74     -13.48      10.84
C       1.37     -13.17      10.56
C       0.86     -11.90      10.89
C       1.63     -10.91      11.49
C       1.05      -9.58      11.80
C       0.01      -9.07      11.13
C       1.67      -8.80      12.91
C       2.65      -7.83      12.64
C       3.24      -7.08      13.73
C       0.27     -10.03      14.55
C      -0.12     -10.26      15.85
C       0.46      -9.53      16.92
C       1.42      -8.58      16.66
C       1.00      -3.67      16.50
C       1.53      -4.91      16.18
C       4.07      -2.03      18.06
