20

H      18.07       4.35       3.76
C      18.31       5.29       6.98
H      17.92       3.30       5.17
C      18.29       6.64       4.97
C      18.39       4.23       4.80
H      20.14       6.44       7.45
H      20.35       4.69       7.57
H      20.27       3.37       5.57
N      20.38       5.46       5.61
H      20.43       4.12       3.99
N      17.81       5.36       5.57
H      20.18       6.53       3.83
C      19.85       5.48       7.00
C      19.92       4.20       4.95
H      20.29       7.54       5.28
C      19.84       6.62       4.86
H      18.01       4.32       7.38
H      17.79       6.06       7.56
H      17.92       7.46       5.60
H      17.81       6.74       3.98
