10

H      -1.38       8.85       8.13
H      -1.32       5.76       8.13
O      -3.72       6.49       8.13
O       1.02       8.12       8.13
O      -3.92       8.76       8.13
O       1.22       5.85       8.13
C      -3.25       7.68       8.13
C       0.55       6.93       8.13
C      -1.77       7.83       8.13
C      -0.93       6.78       8.13
