24

O       1.52      -2.74       9.68
O       7.59      -6.29       8.48
O       2.82      -1.41       8.35
H       5.06      -3.69      12.39
H       3.98      -6.14      10.83
H       4.06      -5.35       5.77
O       4.00      -2.06      11.76
H       5.14      -2.89       7.33
O       5.12      -6.97       6.41
O       6.29      -7.62       9.81
H       6.75      -3.55       9.58
H       2.37      -5.48       8.58
C       2.58      -2.47       9.02
C       6.54      -6.56       9.14
C       4.49      -3.88      10.28
C       4.63      -5.15       7.88
C       5.77      -3.98       9.34
C       3.35      -5.05       8.82
C       5.49      -5.51       9.14
C       3.62      -3.52       9.02
C       4.23      -5.42      10.05
C       4.88      -3.61       8.11
C       4.51      -3.16      11.57
C       4.61      -5.87       6.59
