58

H       4.93       8.67      14.53
H       3.44       8.24      15.40
H       4.67       7.01      15.07
H       2.73       6.80      13.46
H       4.24       7.16      12.62
H       3.62       9.57      12.50
H       2.13       9.25      13.41
H       1.00       4.07       5.31
H       2.53       4.80       5.83
H       2.08       3.19       6.42
H       1.66       4.89       8.21
H       0.14       4.18       7.69
H      -0.27       6.14       6.18
H       2.45       7.12       8.32
H       1.24       6.86       6.68
H      -3.07       5.32       4.70
H      -4.61       5.79       5.45
H      -3.92       6.78       4.15
H      -3.50       7.87       6.40
H      -1.98       7.41       5.63
H      -2.04       5.24       6.98
H      -3.47       5.83       7.80
H      -2.44       9.52      14.34
H      -4.04       9.02      13.76
H       0.23       8.89      12.36
H      -3.17       8.02      14.92
H      -3.00       7.02      12.62
H      -1.41       7.50      13.19
H      -1.68       9.69      11.90
H      -3.23       9.12      11.32
C       4.18       7.99      10.02
C      -3.76       7.56       9.52
C       2.70       7.99      10.23
C      -2.27       7.51       9.45
C      -0.27       6.88       8.20
C      -1.66       6.87       8.32
C      -1.54       8.10      10.47
C      -0.12       8.05      10.40
C       0.51       7.48       9.24
C       1.93       7.50       9.19
C       2.08       8.48      11.43
C       0.70       8.51      11.45
C       2.84       8.81      12.69
C       3.49       7.57      13.32
C       4.17       7.89      14.65
C       0.42       6.22       7.03
C       0.97       4.82       7.36
C       1.69       4.19       6.17
C      -2.54       6.16       7.31
C      -2.90       7.00       6.07
C      -3.67       6.18       5.04
C      -2.23       8.77      11.63
C      -2.39       7.89      12.89
C      -3.04       8.65      14.04
O       4.88       8.84      10.69
O      -4.33       6.81      10.37
O       4.65       7.15       9.18
O      -4.34       8.37       8.72
