39

N       4.73      -0.61       2.17
N       5.85      -0.31       2.87
N       1.92      -5.13      12.38
N       5.05       1.00       6.89
H       2.67      -0.62       2.63
H       1.66      -1.07       4.58
H       5.25      -0.05       9.24
H       0.83      -2.22       6.60
H       1.45      -3.21       8.77
N       3.27      -5.30      12.50
O       4.95      -1.79      11.23
H       6.28       0.30       4.85
H       0.66      -3.85      11.24
H       5.41       1.07       7.83
H       5.74       2.95       6.66
H       3.97       2.80       6.46
H       5.07       2.26       5.17
H       5.60       0.18      11.48
H       6.74      -0.90      10.60
H       6.48      -1.12      12.36
H       4.94      -4.39      11.57
C       3.86      -4.42      11.67
C       2.89      -3.65      10.99
C       3.67      -0.43       3.00
C       4.12      -0.04       4.28
C       3.39      -0.18       5.54
C       3.10      -2.61       9.99
C       4.41      -0.73       9.11
C       4.18      -1.67      10.10
C       2.27      -2.50       8.88
C       2.51      -1.58       7.83
C       3.62      -0.70       7.93
C       5.52       0.05       4.12
C       4.00       0.09       6.78
C       2.18      -0.94       5.53
C       1.73      -1.60       6.64
C       1.68      -4.16      11.48
C       4.94       2.32       6.26
C       6.00      -0.85      11.41
