36

H       8.25      12.64       7.54
H       1.96      20.84       9.21
H       6.52      17.05       7.46
H       3.66      16.57       8.50
H       2.34      18.38       8.99
H       7.77      15.04       7.04
H       4.18      14.78       9.42
H       6.09      19.16       7.00
H       6.00      23.28       5.77
H       4.42      11.25      11.79
C       3.68      22.81       8.60
C       6.68      10.90       8.87
C       3.81      21.36       8.27
C       6.49      12.37       8.73
C       4.96      20.87       7.60
C       5.34      13.00       9.27
C       5.18      19.50       7.50
C       5.07      14.33       8.97
C       4.26      18.58       8.04
C       5.93      15.09       8.16
C       3.08      19.08       8.60
C       7.09      14.46       7.67
C       2.86      20.45       8.72
C       7.36      13.13       7.95
C       4.51      17.15       8.12
C       5.67      16.50       7.87
C       5.95      21.81       6.97
C       4.41      12.27      10.19
O       2.51      23.29       8.75
O       7.86      10.42       8.91
O       4.78      23.45       8.76
O       5.60      10.23       8.90
O       7.15      21.81       7.18
O       5.34      22.61       6.06
O       3.20      12.20      10.04
O       5.07      11.77      11.27
