26

H      15.11       4.40      21.06
H      10.96       4.95      19.51
H      11.04       3.02      20.79
H      11.19       2.16      23.13
H      15.01       3.63      18.88
H      14.90       4.47      16.53
O      13.96       5.54      14.67
O      11.90       6.44      14.93
H      15.25       3.52      23.39
O      14.43       2.28      25.39
O      12.30       1.52      25.14
H      10.87       5.78      17.16
C      12.88       5.18      16.71
C      11.77       5.30      17.55
C      11.82       4.83      18.86
C      13.00       4.24      19.36
C      12.91       5.74      15.34
C      14.11       4.11      18.51
C      14.05       4.57      17.20
C      14.26       3.90      21.51
C      14.34       3.41      22.81
C      12.04       2.66      22.66
C      11.96       3.15      21.36
C      13.07       3.76      20.76
C      13.23       2.78      23.39
C      13.31       2.16      24.73
