44

N       9.31       2.45      20.18
N       9.22      -2.45      23.06
N       9.07      -2.45      20.18
N       9.16       2.45      23.06
H      10.80      -1.42      16.04
H      10.84       1.37      27.20
O       8.79       1.07      13.82
O       8.78      -1.07      29.42
H       7.58       1.42      16.04
H       7.53      -1.37      27.20
O       9.58      -1.07      13.82
O       9.59       1.06      29.42
H      10.84      -1.37      18.53
H      10.89       1.32      24.72
H       7.53       1.37      18.53
H       7.49      -1.32      24.72
H      10.16       2.96      20.43
H       8.53       3.07      20.39
H      10.05      -2.99      22.82
H       8.42      -3.05      22.85
H       8.22      -2.96      20.42
H       9.85      -3.07      20.40
H       8.33       2.99      22.82
H       9.96       3.05      22.85
C      10.10      -0.80      16.60
C      10.12       0.77      26.65
C       8.28       0.80      16.60
C       8.25      -0.77      26.65
C       9.19      -0.00      18.71
C       9.19      -0.00      24.53
C      10.11      -0.78      17.99
C      10.13       0.75      25.26
C       8.27       0.78      17.99
C       8.24      -0.75      25.26
C       9.19      -0.00      15.89
C       9.19      -0.00      27.35
C       9.22       1.21      20.92
C       9.18      -1.22      22.33
C       9.16      -1.22      20.92
C       9.20       1.22      22.33
C       9.19      -0.00      23.05
C       9.19      -0.00      20.19
C       9.19       0.00      14.40
C       9.19      -0.00      28.84
