28

C       7.02       4.95      13.29
C       1.84       9.65       9.55
C       8.30       5.35      13.01
C       0.55       9.24       9.83
C       7.53       7.07      11.64
C       1.32       7.50      11.17
H       4.34       4.45      13.66
C       2.67       7.84      10.96
C       5.90       5.63      12.74
C       2.95       8.96      10.10
H       1.03       6.67      11.80
H      -0.32       9.75       9.43
H       2.50       5.69      12.66
C       3.76       7.10      11.56
C       3.52       5.99      12.43
C       5.09       7.48      11.28
C       4.55       5.28      12.99
C       4.31       9.31       9.85
H       9.18       4.86      13.42
C       5.33       8.60      10.41
H       6.35       8.90      10.19
Br       6.79       3.46      14.45
Br       2.07      11.16       8.43
N       8.54       6.41      12.19
N       0.32       8.17      10.63
C       6.18       6.74      11.87
H       4.51      10.15       9.19
H       7.82       7.90      10.99
