36

H       0.77       8.46       0.27
H       0.91       8.40      -2.23
H       1.99       9.37      -6.08
H       1.91       5.07      -5.73
C       1.85       6.88     -10.08
C       1.79       6.73       2.03
C       1.84       6.60       0.53
C       1.27       7.63      -0.24
C       1.36       7.61      -1.62
C       1.99       6.54      -2.28
C       2.53       5.50      -1.51
C       2.48       5.54      -0.12
C       1.96       8.38      -6.53
C       1.91       7.24      -5.74
C       1.93       5.97      -6.34
C       2.00       5.88      -7.72
C       1.97       7.01      -8.57
C       1.97       8.26      -7.92
N       2.05       6.39      -3.67
N       1.88       7.45      -4.34
N       3.13       4.49       0.68
N       3.07       4.32      -2.24
N       2.06       9.56      -8.64
N       2.18       4.49      -8.22
O       0.77       7.33     -10.57
O       2.79       6.33     -10.73
O       0.76       6.31       2.62
O       2.77       7.37       2.53
O       2.69       4.30       1.82
O       4.09       3.91       0.17
O       4.06       4.52      -2.96
O       2.45       3.27      -2.11
O       1.29       9.77      -9.58
O       2.89      10.35      -8.18
O       3.14       4.30      -8.96
O       1.40       3.64      -7.77
