28

N       8.61       7.41       9.01
N       9.73       6.56       9.01
N       8.64       7.48      14.26
H       9.42       5.59       9.06
H      10.29       6.78       9.83
H       7.95       9.52       3.55
H       7.50       9.73       6.00
H       9.63       6.01       6.56
H      10.00       5.95       4.14
H       7.50       9.72      12.02
H       7.91       9.41      14.45
H       9.32       5.56      13.90
H       8.93       5.65      11.46
C       8.29       8.77       4.26
C       8.03       8.87       5.61
C       8.48       7.88       6.50
C       9.22       6.82       5.95
C       9.45       6.78       4.58
C       8.09       8.03       7.89
C       7.94       7.95      10.09
C       8.21       7.72      11.51
C       7.90       8.78      12.39
C       8.13       8.61      13.75
C       8.93       6.46      13.44
C       8.72       6.53      12.06
N       8.98       7.72       3.73
N       7.13       8.87       8.29
N       7.05       8.84       9.65
