16

C       7.66       6.65      20.52
C       7.75       3.08      20.28
C       7.72       6.78      19.14
C       7.69       2.94      21.66
C       7.74       4.42      19.85
C       7.68       5.30      20.95
F       7.60       7.67      21.38
F       7.81       2.05      19.42
O       7.70       1.90      23.74
O       7.65       0.61      21.85
C       7.72       8.00      18.33
O       7.83       7.83      17.06
O       7.61       9.11      18.95
S       7.79       5.23      18.34
S       7.64       4.49      22.46
C       7.68       1.72      22.47
